[Format]      =  4.0
[Frequency]   =  0
[Precision]   =  1e-008
[MinAngle]    =  30
[DoSmartMesh] =  1
[Depth]       =  45
[LengthUnits] =  millimeters
[ProblemType] =  planar
[Coordinates] =  cartesian
[ACSolver]    =  0
[PrevType]    =  0
[PrevSoln]    =  ""
[Comment]     =  "Add comments here."
[PointProps]   = 0
[BdryProps]   = 0
[BlockProps]  = 7
  <BeginBlock>
    <BlockName> = "N52"
    <Mu_x> = 1.05
    <Mu_y> = 1.05
    <H_c> = 956180
    <H_cAngle> = 0
    <J_re> = 0
    <J_im> = 0
    <Sigma> = 0.66700000000000004
    <d_lam> = 0
    <Phi_h> = 0
    <Phi_hx> = 0
    <Phi_hy> = 0
    <LamType> = 0
    <LamFill> = 1
    <NStrands> = 0
    <WireD> = 0
    <BHPoints> = 8
      0	0
      0.073200000000000001	7484
      0.1464	18446
      0.2195	37084
      0.29270000000000002	72766
      0.3659	124571
      0.43909999999999999	179757
      1.4636	956180
  <EndBlock>
  <BeginBlock>
    <BlockName> = "Air"
    <Mu_x> = 1
    <Mu_y> = 1
    <H_c> = 0
    <H_cAngle> = 0
    <J_re> = 0
    <J_im> = 0
    <Sigma> = 0
    <d_lam> = 0
    <Phi_h> = 0
    <Phi_hx> = 0
    <Phi_hy> = 0
    <LamType> = 0
    <LamFill> = 1
    <NStrands> = 0
    <WireD> = 0
    <BHPoints> = 0
  <EndBlock>
  <BeginBlock>
    <BlockName> = "Pure Iron"
    <Mu_x> = 14872
    <Mu_y> = 14872
    <H_c> = 0
    <H_cAngle> = 0
    <J_re> = 0
    <J_im> = 0
    <Sigma> = 10.44
    <d_lam> = 0
    <Phi_h> = 0
    <Phi_hx> = 0
    <Phi_hy> = 0
    <LamType> = 0
    <LamFill> = 1
    <NStrands> = 0
    <WireD> = 0
    <BHPoints> = 21
      0	0
      0.22706499999999999	13.898400000000001
      0.45412999999999998	27.796700000000001
      0.68119499999999999	42.397399999999998
      0.90825999999999996	61.415700000000001
      1.13533	82.382400000000004
      1.36239	144.66900000000001
      1.58935	897.75999999999999
      1.81236	4581.7399999999998
      2.01004	17736.200000000001
      2.1331600000000002	41339.300000000003
      2.1999900000000001	68321.800000000003
      2.2547899999999998	95685.5
      2.2999299999999998	123355
      2.3425099999999999	151083
      2.3787600000000002	178954
      2.4150100000000001	206825
      2.45126	234696
      2.4874999999999998	262568
      2.5237500000000002	290439
      2.5600000000000001	318310
  <EndBlock>
  <BeginBlock>
    <BlockName> = "22 AWG"
    <Mu_x> = 1
    <Mu_y> = 1
    <H_c> = 0
    <H_cAngle> = 0
    <J_re> = 0
    <J_im> = 0
    <Sigma> = 58
    <d_lam> = 0
    <Phi_h> = 0
    <Phi_hx> = 0
    <Phi_hy> = 0
    <LamType> = 3
    <LamFill> = 1
    <NStrands> = 1
    <WireD> = 0.64399170069399603
    <BHPoints> = 0
  <EndBlock>
  <BeginBlock>
    <BlockName> = "316 Stainless Steel"
    <Mu_x> = 1
    <Mu_y> = 1
    <H_c> = 0
    <H_cAngle> = 0
    <J_re> = 0
    <J_im> = 0
    <Sigma> = 1.3340000000000001
    <d_lam> = 0
    <Phi_h> = 0
    <Phi_hx> = 0
    <Phi_hy> = 0
    <LamType> = 0
    <LamFill> = 1
    <NStrands> = 0
    <WireD> = 0
    <BHPoints> = 0
  <EndBlock>
  <BeginBlock>
    <BlockName> = "Hot rolled low-carbon steel"
    <Mu_x> = 1
    <Mu_y> = 1
    <H_c> = 0
    <H_cAngle> = 0
    <J_re> = 0
    <J_im> = 0
    <Sigma> = 8.4100000000000001
    <d_lam> = 0
    <Phi_h> = 0
    <Phi_hx> = 0
    <Phi_hy> = 0
    <LamType> = 0
    <LamFill> = 1
    <NStrands> = 0
    <WireD> = 0
    <BHPoints> = 33
      0	0
      0.055400999999999999	54.381332999999998
      0.060842	55.520000000000003
      0.082604999999999998	60.317
      0.115245	67.594999999999999
      0.137462	73.435000000000002
      0.16012599999999999	78.954999999999998
      0.170096	81.445333000000005
      0.27701100000000001	104.38333299999999
      0.40698299999999998	129.63333299999999
      0.98336500000000004	266.46666699999997
      1.2471909999999999	470.42666700000001
      1.2917099999999999	538.19000000000005
      1.300298	555.16999999999996
      1.3030379999999999	560.95333300000004
      1.3139350000000001	584.68666700000006
      1.343923	655.25666699999999
      1.3630519999999999	704.53666699999997
      1.368071	719.28999999999996
      1.5479700000000001	1700.4333329999999
      1.571412	1945.866667
      1.627019	2826.9000000000001
      1.6312310000000001	2916.2333330000001
      1.6340079999999999	2977.4000000000001
      1.7342219999999999	6091.7333330000001
      1.866355	12988.333333
      1.9876050000000001	24965
      2.027377	32025
      2.1014330000000001	54377.333333000002
      2.1251829999999998	64205.333333000002
      2.4139740000000001	260993.33333299999
      2.461449	298746.66666699998
      2.4898319999999998	321280
  <EndBlock>
  <BeginBlock>
    <BlockName> = "Aluminum, 1100"
    <Mu_x> = 1
    <Mu_y> = 1
    <H_c> = 0
    <H_cAngle> = 0
    <J_re> = 0
    <J_im> = 0
    <Sigma> = 34.450000000000003
    <d_lam> = 0
    <Phi_h> = 0
    <Phi_hx> = 0
    <Phi_hy> = 0
    <LamType> = 0
    <LamFill> = 1
    <NStrands> = 0
    <WireD> = 0
    <BHPoints> = 0
  <EndBlock>
[CircuitProps]  = 5
  <BeginCircuit>
    <CircuitName> = "Ia"
    <TotalAmps_re> = 2
    <TotalAmps_im> = 0
    <CircuitType> = 1
  <EndCircuit>
  <BeginCircuit>
    <CircuitName> = "Ib"
    <TotalAmps_re> = -2
    <TotalAmps_im> = 0
    <CircuitType> = 1
  <EndCircuit>
  <BeginCircuit>
    <CircuitName> = "Ic"
    <TotalAmps_re> = -2
    <TotalAmps_im> = 0
    <CircuitType> = 1
  <EndCircuit>
  <BeginCircuit>
    <CircuitName> = "Id"
    <TotalAmps_re> = 2
    <TotalAmps_im> = 0
    <CircuitType> = 1
  <EndCircuit>
  <BeginCircuit>
    <CircuitName> = "Ie"
    <TotalAmps_re> = 2
    <TotalAmps_im> = 0
    <CircuitType> = 1
  <EndCircuit>
[NumPoints] = 144
27.831770447696563	-10.265662269879694	0	1
13.724321299362495	-2.7645985010259047	0	1
12.430637747109015	6.4404382770240893	0	1
23.924014857738456	17.539463537383671	0	1
18.363715047735099	23.29732254440621	0	1
6.8703379371055568	12.198297284046529	0	1
-2.2839424763850849	13.812443909915867	0	1
-9.2880939248300649	28.173082531665571	0	1
-16.482370388478397	24.664199449191837	0	1
-9.4782189400333881	10.303560827442183	0	1
-13.842191825864614	2.0961215270054225	0	1
-29.664372593984936	-0.12754096495842759	0	1
-28.550380162979486	-8.0540089794991072	0	1
-12.728199394859196	-5.8303464875352757	0	1
-6.2710025507952212	-12.516969561676181	0	1
-9.0454965931934961	-28.25190718296793	0	1
-1.1627349439737387	-29.641850744219177	0	1
1.6117590984245442	-13.906913122927602	0	1
9.9664991059358758	-9.8320341522691894	0	1
24.07394825426999	-17.333097921123027	0	1
18.547174248162925	-29.681683365475386	0	1
34.978678945669223	1.2214823845878211	0	1
31.980506464611743	1.116783894480303	0	1
30.688761144819651	-9.0664182231059289	0	1
27.000887038567036	17.174169532486815	0	1
31.049463240832516	7.7415006591898425	0	1
33.960350419660763	8.4672663459888593	0	1
9.6473074535949053	33.644159357842113	0	1
8.820395386143959	30.760374270027018	0	1
18.106024860604862	26.385068954755781	0	1
-7.9898728877138616	30.986479813593469	0	1
2.232207159811793	31.92204960831517	0	1
2.4414765810440819	34.914741759094639	0	1
-29.016315039427365	19.571751621476377	0	1
-26.529202321762153	17.894172911064182	0	1
-19.49862237981532	25.373287632654673	0	1
-31.938900048965529	1.9765281840264528	0	1
-29.669883346137937	11.987410989309174	0	1
-32.451434909838497	13.111230769556922	0	1
-27.580376376235712	-21.54815163639881	0	1
-25.216344115415545	-19.701167210421694	0	1
-30.156836225130075	-10.703514791447905	0	1
-11.749452905832545	-29.764918216143066	0	1
-20.569203509969558	-24.513422179808018	0	1
-22.682451597739028	-24.698307422772945	0	1
11.970705016399096	-32.889241727507439	0	1
10.944644586421907	-30.070163865149759	0	1
0.86067259952075936	-31.988423572856625	0	1
24.677338803944821	-20.372259313963713	0	1
16.957416455463118	-27.137539077006096	0	1
-1.8778862511435768	-3.5317903714357941	0	1
1.8778862511435768	3.5317903714357941	0	1
6.960638053880273	-6.0794340100768842	0	1
8.9324186175809643	-2.3710541200692625	0	1
3.2393537832226911	6.0923383907267921	0	1
5.2111343469234326	9.8007182807343618	0	1
-8.9324186175809643	2.3710541200692625	0	1
-6.9606380538802508	6.0794340100768762	0	1
-5.2111343469234326	-9.8007182807343618	0	1
-3.2393537832226897	-6.0923383907267938	0	1
-22.548392031426637	-26.857960026725237	0	1
-50	-40	0	0
50	-40	0	0
-50	-50	0	0
50	-50	0	0
50	40	0	0
-50	40	0	0
15.12210014402784	-3.510283070352656	0	1
16.061043269599576	-1.7443878846346532	0	1
23.951576072617343	-8.2049986982115719	0	1
24.890519198189029	-6.4391035124936478	0	1
15.123124989597597	-3.5083556161667881	0	1
23.952600918187038	-8.2030712440256544	0	1
10.427384516168843	-12.339758998942127	0	1
11.365302796171036	-10.575791267410086	0	1
11.366327641740719	-10.573863813224202	0	1
20.19477872476044	-15.270506895269001	0	1
20.195803570330259	-15.268579441083194	0	1
19.25686044475842	-17.034474626800993	0	1
6.6221467823257463	14.735914358917196	0	1
13.815544785712445	21.682498063507389	0	1
8.0099471000782394	13.29880506039655	0	1
15.203345103464784	20.245388764986679	0	1
14.958047227834019	6.1038367548532806	0	1
13.570246910081728	7.5409460533741077	0	1
13.568730486916017	7.5425163555306565	0	1
20.762128490302707	14.48910006012089	0	1
22.151445231220595	13.050420459443524	0	1
-2.9784289700122946	15.236352235724665	0	1
-7.3621404379032001	24.224292698716376	0	1
-11.968331479631496	10.85168381375313	0	1
-10.17270543366058	11.727469153250937	0	1
-14.556416901551493	20.715409616242702	0	1
-16.352042947522403	19.839624276744988	0	1
-1.182802924041277	16.112137575222292	0	1
-5.5665143919323175	25.100078038214122	0	1
-15.411017246626665	1.8756374928691919	0	1
-25.313697934042455	0.48390648326848762	0	1
-14.018982425363337	-8.0292049268507029	0	1
-14.297024815621192	-6.0508305216714779	0	1
-14.297328627283584	-6.0486687893674835	0	1
-24.199705503037023	-7.4425615312723234	0	1
-24.200009314699507	-7.440399798968313	0	1
-23.921663112779314	-9.4209359364514391	0	1
-15.689059636884284	3.8540118980484457	0	1
-15.410713434964233	1.8734757605651957	0	1
-25.31339412238021	0.48174475096443814	0	1
-25.591740324300254	2.4622808884475784	0	1
-6.5461034896137784	-14.077144514557865	0	1
-8.2825852662830446	-23.925222044680037	0	1
3.3041238530695161	-15.814005361184972	0	1
1.3366581596059595	-15.467088075809158	0	1
1.3345083470449906	-15.466709005851168	0	1
-0.39982361706322678	-25.315165605931462	0	1
-0.40197342962424187	-25.314786535973525	0	1
1.5676420764001939	-25.662082891307282	0	1
-8.5135691830772871	-13.730227229181873	0	1
-6.5439536770527988	-14.077523584515786	0	1
-8.2804354537220739	-23.92560111463817	0	1
-10.250050959746506	-23.578304759304221	0	1
20.763644913468216	14.487529757964159	0	1
80	80	0	0
-80	80	0	0
80	-80	0	0
-80	-80	0	0
-37	15	0	0
-37	-15	0	0
-40	-15	0	0
-40	15	0	0
37	15	0	0
40	15	0	0
40	-15	0	0
37	-15	0	0
-43	40	0	0
-43	-40	0	0
43	40	0	0
43	-40	0	0
-43	15	0	0
-43	-15	0	0
43	15	0	0
43	-15	0	0
-50	0	0	0
50	0	0	0
-10	7.2999999999999998	0	0
[NumSegments] = 106
0	72	-1	0	0	1
2	84	-1	0	0	1
84	120	-1	0	0	1
4	82	-1	0	0	1
82	81	-1	0	0	1
81	5	-1	0	0	1
6	88	-1	0	0	1
88	89	-1	0	0	1
89	7	-1	0	0	1
8	92	-1	0	0	1
92	91	-1	0	0	1
91	9	-1	0	0	1
10	96	-1	0	0	1
96	97	-1	0	0	1
97	11	-1	0	0	1
12	101	-1	0	0	1
101	99	-1	0	0	1
99	13	-1	0	0	1
14	108	-1	0	0	1
108	109	-1	0	0	1
109	15	-1	0	0	1
16	113	-1	0	0	1
113	111	-1	0	0	1
111	17	-1	0	0	1
18	74	-1	0	0	1
74	76	-1	0	0	1
76	19	-1	0	0	1
71	1	-1	0	0	1
68	71	-1	0	0	1
71	67	-1	0	0	1
72	71	-1	0	0	1
69	72	-1	0	0	1
72	70	-1	0	0	1
68	70	-1	0	0	1
73	74	-1	0	0	1
74	75	-1	0	0	1
77	76	-1	0	0	1
76	78	-1	0	0	1
73	78	-1	0	0	1
90	91	-1	0	0	1
92	93	-1	0	0	1
90	93	-1	0	0	1
94	88	-1	0	0	1
89	95	-1	0	0	1
94	95	-1	0	0	1
98	99	-1	0	0	1
99	100	-1	0	0	1
102	101	-1	0	0	1
101	103	-1	0	0	1
98	103	-1	0	0	1
104	96	-1	0	0	1
96	105	-1	0	0	1
106	97	-1	0	0	1
97	107	-1	0	0	1
104	107	-1	0	0	1
110	111	-1	0	0	1
111	112	-1	0	0	1
114	113	-1	0	0	1
113	115	-1	0	0	1
110	115	-1	0	0	1
116	108	-1	0	0	1
108	117	-1	0	0	1
118	109	-1	0	0	1
109	119	-1	0	0	1
116	119	-1	0	0	1
120	3	-1	0	0	1
86	120	-1	0	0	1
120	87	-1	0	0	1
83	87	-1	0	0	1
85	84	-1	0	0	1
84	83	-1	0	0	1
82	80	-1	0	0	1
80	79	-1	0	0	1
79	81	-1	0	0	1
122	124	-1	0	0	0
124	123	-1	0	0	0
123	121	-1	0	0	0
122	121	-1	0	0	0
128	127	-1	0	0	0
130	131	-1	0	0	0
128	125	-1	0	0	0
126	127	-1	0	0	0
126	125	-1	0	0	0
132	131	-1	0	0	0
132	129	-1	0	0	0
129	130	-1	0	0	0
138	137	-1	0	0	0
140	139	-1	0	0	0
130	139	-1	0	0	0
131	140	-1	0	0	0
137	128	-1	0	0	0
138	127	-1	0	0	0
66	133	-1	0	0	0
133	137	-1	0	0	0
138	134	-1	0	0	0
134	136	-1	0	0	0
136	140	-1	0	0	0
139	135	-1	0	0	0
135	65	-1	0	0	0
65	142	-1	0	0	0
142	62	-1	0	0	0
62	64	-1	0	0	0
64	63	-1	0	0	0
63	61	-1	0	0	0
61	141	-1	0	0	0
141	66	-1	0	0	0
[NumArcSegments] = 51
20	21	59.999999999999922	5	0	0	1	5
21	22	179.99999999999997	5	0	0	1	5
23	22	18.458785784691063	5	0	0	1	5
0	23	101.54121421530873	5	0	0	1	5
1	2	38.778255215453811	5	0	0	1	5
24	3	101.54121421530898	5	0	0	1	5
25	24	18.458785784691038	5	0	0	1	5
25	26	179.99999999999997	5	0	0	1	5
26	27	60.000000000000021	5	0	0	1	5
27	28	179.99999914622637	5	0	0	1	5
29	28	18.458785784691063	5	0	0	1	5
4	29	101.54121421530849	5	0	0	1	5
5	6	38.778255215453768	5	0	0	1	5
30	7	101.54121421531023	5	0	0	1	5
31	30	18.458785784691127	5	0	0	1	5
31	32	179.99999999999997	5	0	0	1	5
32	33	59.999999999999943	5	0	0	1	5
33	34	179.99999999999997	5	0	0	1	5
35	34	18.458785784691038	5	0	0	1	5
8	35	101.54121421530745	5	0	0	1	5
9	10	38.778255215453704	5	0	0	1	5
36	11	101.54121421530752	5	0	0	1	5
37	36	18.458785784691038	5	0	0	1	5
37	38	179.99999999999997	5	0	0	1	5
38	39	59.999999999999943	5	0	0	1	5
39	40	179.99999999999997	5	0	0	1	5
41	40	18.458785784691063	5	0	0	1	5
12	41	101.54121421531023	5	0	0	1	5
13	14	38.778255215453768	5	0	0	1	5
42	15	101.54121421530846	5	0	0	1	5
43	42	18.458785784691063	5	0	0	1	5
43	44	90.000000426886785	5	0	0	1	5
45	46	179.99999999999997	5	0	0	1	5
47	46	18.458785784691127	5	0	0	1	5
16	47	101.54121421530763	5	0	0	1	5
17	18	38.778255215453768	5	0	0	1	5
48	19	101.54121421530873	5	0	0	1	5
49	48	18.458785784691084	5	0	0	1	5
49	20	179.99999999999997	5	0	0	1	5
50	51	180	5	0	0	1	5
51	50	180	5	0	0	1	5
52	53	180	5	0	0	1	5
53	52	180	5	0	0	1	5
54	55	180	5	0	0	1	5
55	54	180	5	0	0	1	5
56	57	180	5	0	0	1	5
57	56	180	5	0	0	1	5
58	59	180	5	0	0	1	5
59	58	180	5	0	0	1	5
60	45	60	1	0	0	1	1
44	60	90	1	0	0	1	1
[NumHoles] = 0
[NumBlockLabels] = 22
38.200000000000003	1.8999999999999999	1	-1	0	0	0	1	0
-9.0388101297353156	-1.8761427020879906	6	-1	0	0	1	1	0
-28.800000000000001	36	2	-1	0	0	0	1	0
7.9878759387378739	-4.3604859806375291	6	-1	0	0	1	1	0
-7.7699388171587618	4.131349752515872	6	-1	0	0	1	1	0
-4.0073069434939335	-8.1756645638521874	6	-1	0	0	1	1	0
4.2196445118017873	7.7229916608801332	6	-1	0	0	1	1	0
-1.324421389288426	0.70420734417884023	6	-1	0	0	1	1	0
18.34510072343766	10.858511843109511	4	-1	2	0	1	-55	0
10.907240823391952	17.531460224994117	4	-1	2	0	1	55	0
-3.4482042534192336	19.501535514587385	4	-1	3	0	1	-55	0
-13.467305111733602	15.994739542346188	4	-1	3	0	1	55	0
-19.990809104349264	2.0217693620896098	4	-1	4	0	1	-55	0
-17.949275990232213	-7.5580084299037056	4	-1	4	0	1	55	0
-8.5155320392931309	-20.275495409182835	4	-1	5	0	1	-55	0
0.99145156017340774	-21.139939068120633	4	-1	5	0	1	55	0
16.053700167272765	-14.538525060656218	4	-1	1	0	1	-55	0
20.536078226823946	-5.2563762290946947	4	-1	1	0	1	55	0
41.299999999999997	-1.1000000000000001	1	-1	0	0	0	1	0
-41.600000000000001	-5.0999999999999996	1	-1	0	0	0	1	0
48.899999999999999	-21.600000000000001	7	-1	0	0	0	1	0
-38.299999999999997	2.6000000000000001	1	-1	0	0	0	1	0
