[Format]      =  4.0
[Frequency]   =  0
[Precision]   =  1e-008
[MinAngle]    =  30
[DoSmartMesh] =  1
[Depth]       =  45
[LengthUnits] =  millimeters
[ProblemType] =  planar
[Coordinates] =  cartesian
[ACSolver]    =  0
[PrevType]    =  0
[PrevSoln]    =  ""
[Comment]     =  "Add comments here."
[PointProps]   = 0
[BdryProps]   = 0
[BlockProps]  = 7
  <BeginBlock>
    <BlockName> = "N52"
    <Mu_x> = 1.05
    <Mu_y> = 1.05
    <H_c> = 956180
    <H_cAngle> = 0
    <J_re> = 0
    <J_im> = 0
    <Sigma> = 0.66700000000000004
    <d_lam> = 0
    <Phi_h> = 0
    <Phi_hx> = 0
    <Phi_hy> = 0
    <LamType> = 0
    <LamFill> = 1
    <NStrands> = 0
    <WireD> = 0
    <BHPoints> = 8
      0	0
      0.073200000000000001	7484
      0.1464	18446
      0.2195	37084
      0.29270000000000002	72766
      0.3659	124571
      0.43909999999999999	179757
      1.4636	956180
  <EndBlock>
  <BeginBlock>
    <BlockName> = "Air"
    <Mu_x> = 1
    <Mu_y> = 1
    <H_c> = 0
    <H_cAngle> = 0
    <J_re> = 0
    <J_im> = 0
    <Sigma> = 0
    <d_lam> = 0
    <Phi_h> = 0
    <Phi_hx> = 0
    <Phi_hy> = 0
    <LamType> = 0
    <LamFill> = 1
    <NStrands> = 0
    <WireD> = 0
    <BHPoints> = 0
  <EndBlock>
  <BeginBlock>
    <BlockName> = "Pure Iron"
    <Mu_x> = 14872
    <Mu_y> = 14872
    <H_c> = 0
    <H_cAngle> = 0
    <J_re> = 0
    <J_im> = 0
    <Sigma> = 10.44
    <d_lam> = 0
    <Phi_h> = 0
    <Phi_hx> = 0
    <Phi_hy> = 0
    <LamType> = 0
    <LamFill> = 1
    <NStrands> = 0
    <WireD> = 0
    <BHPoints> = 21
      0	0
      0.22706499999999999	13.898400000000001
      0.45412999999999998	27.796700000000001
      0.68119499999999999	42.397399999999998
      0.90825999999999996	61.415700000000001
      1.13533	82.382400000000004
      1.36239	144.66900000000001
      1.58935	897.75999999999999
      1.81236	4581.7399999999998
      2.01004	17736.200000000001
      2.1331600000000002	41339.300000000003
      2.1999900000000001	68321.800000000003
      2.2547899999999998	95685.5
      2.2999299999999998	123355
      2.3425099999999999	151083
      2.3787600000000002	178954
      2.4150100000000001	206825
      2.45126	234696
      2.4874999999999998	262568
      2.5237500000000002	290439
      2.5600000000000001	318310
  <EndBlock>
  <BeginBlock>
    <BlockName> = "22 AWG"
    <Mu_x> = 1
    <Mu_y> = 1
    <H_c> = 0
    <H_cAngle> = 0
    <J_re> = 0
    <J_im> = 0
    <Sigma> = 58
    <d_lam> = 0
    <Phi_h> = 0
    <Phi_hx> = 0
    <Phi_hy> = 0
    <LamType> = 3
    <LamFill> = 1
    <NStrands> = 1
    <WireD> = 0.64399170069399603
    <BHPoints> = 0
  <EndBlock>
  <BeginBlock>
    <BlockName> = "316 Stainless Steel"
    <Mu_x> = 1
    <Mu_y> = 1
    <H_c> = 0
    <H_cAngle> = 0
    <J_re> = 0
    <J_im> = 0
    <Sigma> = 1.3340000000000001
    <d_lam> = 0
    <Phi_h> = 0
    <Phi_hx> = 0
    <Phi_hy> = 0
    <LamType> = 0
    <LamFill> = 1
    <NStrands> = 0
    <WireD> = 0
    <BHPoints> = 0
  <EndBlock>
  <BeginBlock>
    <BlockName> = "Hot rolled low-carbon steel"
    <Mu_x> = 1
    <Mu_y> = 1
    <H_c> = 0
    <H_cAngle> = 0
    <J_re> = 0
    <J_im> = 0
    <Sigma> = 8.4100000000000001
    <d_lam> = 0
    <Phi_h> = 0
    <Phi_hx> = 0
    <Phi_hy> = 0
    <LamType> = 0
    <LamFill> = 1
    <NStrands> = 0
    <WireD> = 0
    <BHPoints> = 33
      0	0
      0.055400999999999999	54.381332999999998
      0.060842	55.520000000000003
      0.082604999999999998	60.317
      0.115245	67.594999999999999
      0.137462	73.435000000000002
      0.16012599999999999	78.954999999999998
      0.170096	81.445333000000005
      0.27701100000000001	104.38333299999999
      0.40698299999999998	129.63333299999999
      0.98336500000000004	266.46666699999997
      1.2471909999999999	470.42666700000001
      1.2917099999999999	538.19000000000005
      1.300298	555.16999999999996
      1.3030379999999999	560.95333300000004
      1.3139350000000001	584.68666700000006
      1.343923	655.25666699999999
      1.3630519999999999	704.53666699999997
      1.368071	719.28999999999996
      1.5479700000000001	1700.4333329999999
      1.571412	1945.866667
      1.627019	2826.9000000000001
      1.6312310000000001	2916.2333330000001
      1.6340079999999999	2977.4000000000001
      1.7342219999999999	6091.7333330000001
      1.866355	12988.333333
      1.9876050000000001	24965
      2.027377	32025
      2.1014330000000001	54377.333333000002
      2.1251829999999998	64205.333333000002
      2.4139740000000001	260993.33333299999
      2.461449	298746.66666699998
      2.4898319999999998	321280
  <EndBlock>
  <BeginBlock>
    <BlockName> = "Aluminum, 1100"
    <Mu_x> = 1
    <Mu_y> = 1
    <H_c> = 0
    <H_cAngle> = 0
    <J_re> = 0
    <J_im> = 0
    <Sigma> = 34.450000000000003
    <d_lam> = 0
    <Phi_h> = 0
    <Phi_hx> = 0
    <Phi_hy> = 0
    <LamType> = 0
    <LamFill> = 1
    <NStrands> = 0
    <WireD> = 0
    <BHPoints> = 0
  <EndBlock>
[CircuitProps]  = 5
  <BeginCircuit>
    <CircuitName> = "Ia"
    <TotalAmps_re> = 2
    <TotalAmps_im> = 0
    <CircuitType> = 1
  <EndCircuit>
  <BeginCircuit>
    <CircuitName> = "Ib"
    <TotalAmps_re> = -2
    <TotalAmps_im> = 0
    <CircuitType> = 1
  <EndCircuit>
  <BeginCircuit>
    <CircuitName> = "Ic"
    <TotalAmps_re> = -2
    <TotalAmps_im> = 0
    <CircuitType> = 1
  <EndCircuit>
  <BeginCircuit>
    <CircuitName> = "Id"
    <TotalAmps_re> = -2
    <TotalAmps_im> = 0
    <CircuitType> = 1
  <EndCircuit>
  <BeginCircuit>
    <CircuitName> = "Ie"
    <TotalAmps_re> = 2
    <TotalAmps_im> = 0
    <CircuitType> = 1
  <EndCircuit>
[NumPoints] = 144
19.365323091497913	-22.471660589605364	0	1
10.663257926119531	-9.0716553286080277	0	1
13.994467181236578	-0.39355852589555085	0	1
29.427715525357545	3.7417679045007262	0	1
27.356033172551669	11.473391702316306	0	1
11.922784828430586	7.3380652719199926	0	1
4.6988245868210496	13.187912932010828	0	1
5.5350314549275037	29.143690481568868	0	1
-2.4583647934914268	29.562606627877784	0	1
-3.2945716615978222	13.606829078319805	0	1
-11.090433879407492	8.5441369585525369	0	1
-26.006877957412669	14.27002337071565	0	1
-28.875386171675377	6.7973039897551555	0	1
-13.958942093670267	1.0714175775920391	0	1
-11.553089674278247	-7.9073458870911981	0	1
-21.608165973878982	-20.324331018211332	0	1
-15.387605298882752	-25.361641730343862	0	1
-5.3325289992820633	-12.944656599223899	0	1
3.9502317856280738	-13.431145477576589	0	1
12.652296951006484	-26.831150738573992	0	1
1.8317584685034509	-34.952033716411322	0	1
31.185228346594219	-15.889667490884543	0	1
28.512208774028792	-14.527695991665745	0	1
22.445508509214864	-22.807874687547038	0	1
31.941710523266977	1.930577335384023	0	1
30.909626441251262	-8.2822094432806264	0	1
33.807403920118901	-9.0586665785884062	0	1
24.748737341529914	24.748737341530369	0	1
22.627416997970123	22.627416997970457	0	1
28.627621421169753	14.298926245220873	0	1
8.0344432260658909	30.97495314035536	0	1
17.428449120481233	26.83745817425465	0	1
19.062366225526354	29.35346987809104	0	1
-15.889667490885026	31.185228346593959	0	1
-14.527695991666196	28.512208774028693	0	1
-4.75266545386744	31.645097109721469	0	1
-26.976151528876962	17.212996505290924	0	1
-20.138252513595674	24.868670766623701	0	1
-22.026213686745393	27.200108650994828	0	1
-34.569091920831063	-5.4752062764085965	0	1
-31.606026899045414	-5.0059028812877795	0	1
-31.564930208817319	5.2588193458779955	0	1
-24.706621756579324	-20.336736251852436	0	1
-29.874573647911358	-11.467774385450202	0	1
-31.81249621598019	-10.604955659588713	0	1
-5.47520627640783	-34.569091920831191	0	1
-5.0059028812873372	-31.606026899045556	0	1
-14.755534267700053	-28.394968013273278	0	1
11.706619536123359	-29.781790729177839	0	1
1.6747505997744825	-31.956145112147343	0	1
-3.3546822717817801	-2.1785561400601967	0	1
3.3546822717817801	2.1785561400601967	0	1
3.1405431224500973	-8.6917770850407319	0	1
6.6629595078209363	-6.4042931379774588	0	1
5.7868269188236345	3.7580093416038776	0	1
9.3092433041944851	6.0454932886670836	0	1
-6.6629595078209363	6.4042931379774588	0	1
-3.1405431224500862	8.6917770850407194	0	1
-9.3092433041944851	-6.0454932886670836	0	1
-5.7868269188236319	-3.7580093416038838	0	1
-32.742265436139057	-12.558823755014728	0	1
-50	-40	0	0
50	-40	0	0
-50	-50	0	0
50	-50	0	0
50	40	0	0
-50	40	0	0
11.524267797007537	-10.40150237912156	0	1
13.201608932898427	-9.3122243090913059	0	1
16.970658147158076	-18.788208058576007	0	1
18.647999283048833	-17.6989299885458	0	1
11.526098595471504	-10.400313444697472	0	1
16.972488945621979	-18.787019124151797	0	1
3.1375621175530166	-15.847892729271978	0	1
4.8130724549800998	-14.759803593666033	0	1
4.814903253444017	-14.758614659241893	0	1
10.25946280513053	-23.146509273120444	0	1
10.261293603594568	-23.145320338696472	0	1
8.5839524677036572	-24.234598408726434	0	1
12.935973123721128	9.6778406342726111	0	1
22.595231386612205	12.26603108529792	0	1
13.453046217933542	7.7480975754458212	0	1
23.112304480824381	10.336288026471177	0	1
16.04180166495162	-1.9132692811965661	0	1
15.524728570739523	0.016473777630293285	0	1
15.524163574746627	0.018582371381681562	0	1
25.18342183763772	2.6067728224070423	0	1
25.701059927842639	0.67492116982887751	0	1
4.7817374678534978	14.769984948164664	0	1
5.3050970302828633	24.756280295710614	0	1
-5.206737864883574	15.29345875877662	0	1
-3.2116587805653478	15.188901094473614	0	1
-2.6882992181360019	25.175196442019573	0	1
-4.683378302454126	25.279754106322695	0	1
6.7768165521717254	14.665427283861408	0	1
7.3001761146010171	24.651722631407534	0	1
-12.569452290327188	9.1118789336598223	0	1
-21.905256555299413	12.695558429112889	0	1
-16.153914094730261	-0.22596331580388695	0	1
-15.437960504589912	1.6391595526993719	0	1
-15.437178195639737	1.6411975371906742	0	1
-24.773764769562234	5.2228390481522897	0	1
-24.772982460612166	5.2248770326436889	0	1
-25.489718359702621	3.3577161796492376	0	1
-11.853498700186604	10.977001802162988	0	1
-12.570234599277356	9.1098409491684951	0	1
-21.906038864249805	12.693520444621617	0	1
-21.189302965159079	14.560681297615968	0	1
-12.5500862032459	-9.1385340657887681	0	1
-18.843290113744388	-16.909993680358646	0	1
-4.7769300970057067	-15.433111768154051	0	1
-6.3295255282497092	-14.175844777921306	0	1
-6.331222019919827	-14.174470986054406	0	1
-12.62272943874812	-21.947304392491333	0	1
-12.624425930418337	-21.945930600624465	0	1
-11.070134007504304	-23.20457138272403	0	1
-14.102681634489761	-7.8812670755558454	0	1
-12.548389711575755	-9.1399078576556345	0	1
-18.841593622074388	-16.911367472225724	0	1
-20.395885544988268	-15.652726690125933	0	1
25.183986833630357	2.6046642286555985	0	1
80	80	0	0
-80	80	0	0
80	-80	0	0
-80	-80	0	0
-37	15	0	0
-37	-15	0	0
-40	-15	0	0
-40	15	0	0
37	15	0	0
40	15	0	0
40	-15	0	0
37	-15	0	0
-43	40	0	0
-43	-40	0	0
43	40	0	0
43	-40	0	0
-43	15	0	0
-43	-15	0	0
43	15	0	0
43	-15	0	0
-50	0	0	0
50	0	0	0
-10	7.2999999999999998	0	0
[NumSegments] = 106
0	72	-1	0	0	1
2	84	-1	0	0	1
84	120	-1	0	0	1
4	82	-1	0	0	1
82	81	-1	0	0	1
81	5	-1	0	0	1
6	88	-1	0	0	1
88	89	-1	0	0	1
89	7	-1	0	0	1
8	92	-1	0	0	1
92	91	-1	0	0	1
91	9	-1	0	0	1
10	96	-1	0	0	1
96	97	-1	0	0	1
97	11	-1	0	0	1
12	101	-1	0	0	1
101	99	-1	0	0	1
99	13	-1	0	0	1
14	108	-1	0	0	1
108	109	-1	0	0	1
109	15	-1	0	0	1
16	113	-1	0	0	1
113	111	-1	0	0	1
111	17	-1	0	0	1
18	74	-1	0	0	1
74	76	-1	0	0	1
76	19	-1	0	0	1
71	1	-1	0	0	1
68	71	-1	0	0	1
71	67	-1	0	0	1
72	71	-1	0	0	1
69	72	-1	0	0	1
72	70	-1	0	0	1
68	70	-1	0	0	1
73	74	-1	0	0	1
74	75	-1	0	0	1
77	76	-1	0	0	1
76	78	-1	0	0	1
73	78	-1	0	0	1
90	91	-1	0	0	1
92	93	-1	0	0	1
90	93	-1	0	0	1
94	88	-1	0	0	1
89	95	-1	0	0	1
94	95	-1	0	0	1
98	99	-1	0	0	1
99	100	-1	0	0	1
102	101	-1	0	0	1
101	103	-1	0	0	1
98	103	-1	0	0	1
104	96	-1	0	0	1
96	105	-1	0	0	1
106	97	-1	0	0	1
97	107	-1	0	0	1
104	107	-1	0	0	1
110	111	-1	0	0	1
111	112	-1	0	0	1
114	113	-1	0	0	1
113	115	-1	0	0	1
110	115	-1	0	0	1
116	108	-1	0	0	1
108	117	-1	0	0	1
118	109	-1	0	0	1
109	119	-1	0	0	1
116	119	-1	0	0	1
120	3	-1	0	0	1
86	120	-1	0	0	1
120	87	-1	0	0	1
83	87	-1	0	0	1
85	84	-1	0	0	1
84	83	-1	0	0	1
82	80	-1	0	0	1
80	79	-1	0	0	1
79	81	-1	0	0	1
122	124	-1	0	0	0
124	123	-1	0	0	0
123	121	-1	0	0	0
122	121	-1	0	0	0
128	127	-1	0	0	0
130	131	-1	0	0	0
128	125	-1	0	0	0
126	127	-1	0	0	0
126	125	-1	0	0	0
132	131	-1	0	0	0
132	129	-1	0	0	0
129	130	-1	0	0	0
138	137	-1	0	0	0
140	139	-1	0	0	0
130	139	-1	0	0	0
131	140	-1	0	0	0
137	128	-1	0	0	0
138	127	-1	0	0	0
66	133	-1	0	0	0
133	137	-1	0	0	0
138	134	-1	0	0	0
134	136	-1	0	0	0
136	140	-1	0	0	0
139	135	-1	0	0	0
135	65	-1	0	0	0
65	142	-1	0	0	0
142	62	-1	0	0	0
62	64	-1	0	0	0
64	63	-1	0	0	0
63	61	-1	0	0	0
61	141	-1	0	0	0
141	66	-1	0	0	0
[NumArcSegments] = 51
20	21	59.999999999999922	5	0	0	1	5
21	22	179.99999999999997	5	0	0	1	5
23	22	18.458785784691063	5	0	0	1	5
0	23	101.54121421530873	5	0	0	1	5
1	2	38.778255215453811	5	0	0	1	5
24	3	101.54121421530898	5	0	0	1	5
25	24	18.458785784691038	5	0	0	1	5
25	26	179.99999999999997	5	0	0	1	5
26	27	60.000000000000021	5	0	0	1	5
27	28	179.99999914622637	5	0	0	1	5
29	28	18.458785784691063	5	0	0	1	5
4	29	101.54121421530849	5	0	0	1	5
5	6	38.778255215453768	5	0	0	1	5
30	7	101.54121421531023	5	0	0	1	5
31	30	18.458785784691127	5	0	0	1	5
31	32	179.99999999999997	5	0	0	1	5
32	33	59.999999999999943	5	0	0	1	5
33	34	179.99999999999997	5	0	0	1	5
35	34	18.458785784691038	5	0	0	1	5
8	35	101.54121421530745	5	0	0	1	5
9	10	38.778255215453704	5	0	0	1	5
36	11	101.54121421530752	5	0	0	1	5
37	36	18.458785784691038	5	0	0	1	5
37	38	179.99999999999997	5	0	0	1	5
38	39	59.999999999999943	5	0	0	1	5
39	40	179.99999999999997	5	0	0	1	5
41	40	18.458785784691063	5	0	0	1	5
12	41	101.54121421531023	5	0	0	1	5
13	14	38.778255215453768	5	0	0	1	5
42	15	101.54121421530846	5	0	0	1	5
43	42	18.458785784691063	5	0	0	1	5
43	44	90.000000426886785	5	0	0	1	5
45	46	179.99999999999997	5	0	0	1	5
47	46	18.458785784691127	5	0	0	1	5
16	47	101.54121421530763	5	0	0	1	5
17	18	38.778255215453768	5	0	0	1	5
48	19	101.54121421530873	5	0	0	1	5
49	48	18.458785784691084	5	0	0	1	5
49	20	179.99999999999997	5	0	0	1	5
50	51	180	5	0	0	1	5
51	50	180	5	0	0	1	5
52	53	180	5	0	0	1	5
53	52	180	5	0	0	1	5
54	55	180	5	0	0	1	5
55	54	180	5	0	0	1	5
56	57	180	5	0	0	1	5
57	56	180	5	0	0	1	5
58	59	180	5	0	0	1	5
59	58	180	5	0	0	1	5
60	45	60	1	0	0	1	1
44	60	90	1	0	0	1	1
[NumHoles] = 0
[NumBlockLabels] = 22
38.200000000000003	1.8999999999999999	1	-1	0	0	0	1	0
-8.815093499485009	2.7411907258238339	6	-1	0	0	1	1	0
-28.800000000000001	36	2	-1	0	0	0	1	0
4.8723481618424351	-7.6863660718050815	6	-1	0	0	1	1	0
-4.7928235081324493	7.3803009979199432	6	-1	0	0	1	1	0
-7.4685104577990291	-5.2078163890205804	6	-1	0	0	1	1	0
7.4347649014214161	4.708956451337829	6	-1	0	0	1	1	0
-0.81695855252257565	1.2580058519181676	6	-1	0	0	1	1	0
21.309297625274294	0.60318713307949012	4	-1	2	0	1	-55	0
18.039108348697336	10.0454253261864	4	-1	2	0	1	55	0
6.4386646327652839	18.728149875169109	4	-1	3	0	1	-55	0
-4.0243668493173743	20.518393491259054	4	-1	3	0	1	55	0
-16.504182367665301	11.460015897670914	4	-1	4	0	1	-55	0
-19.362985706661608	2.0915985570017517	4	-1	4	0	1	55	0
-17.277607367975129	-13.604936002720555	4	-1	5	0	1	-55	0
-9.3817027584446393	-18.970072571084849	4	-1	5	0	1	55	0
6.9924657252052587	-20.498668812434229	4	-1	1	0	1	-55	0
15.412916961037421	-14.55341852460111	4	-1	1	0	1	55	0
41.299999999999997	-1.1000000000000001	1	-1	0	0	0	1	0
-41.600000000000001	-5.0999999999999996	1	-1	0	0	0	1	0
48.899999999999999	-21.600000000000001	7	-1	0	0	0	1	0
-38.299999999999997	2.6000000000000001	1	-1	0	0	0	1	0
