[Format]      =  4.0
[Frequency]   =  0
[Precision]   =  1e-008
[MinAngle]    =  30
[DoSmartMesh] =  1
[Depth]       =  45
[LengthUnits] =  millimeters
[ProblemType] =  planar
[Coordinates] =  cartesian
[ACSolver]    =  0
[PrevType]    =  0
[PrevSoln]    =  ""
[Comment]     =  "Add comments here."
[PointProps]   = 0
[BdryProps]   = 0
[BlockProps]  = 7
  <BeginBlock>
    <BlockName> = "N52"
    <Mu_x> = 1.05
    <Mu_y> = 1.05
    <H_c> = 956180
    <H_cAngle> = 0
    <J_re> = 0
    <J_im> = 0
    <Sigma> = 0.66700000000000004
    <d_lam> = 0
    <Phi_h> = 0
    <Phi_hx> = 0
    <Phi_hy> = 0
    <LamType> = 0
    <LamFill> = 1
    <NStrands> = 0
    <WireD> = 0
    <BHPoints> = 8
      0	0
      0.073200000000000001	7484
      0.1464	18446
      0.2195	37084
      0.29270000000000002	72766
      0.3659	124571
      0.43909999999999999	179757
      1.4636	956180
  <EndBlock>
  <BeginBlock>
    <BlockName> = "Air"
    <Mu_x> = 1
    <Mu_y> = 1
    <H_c> = 0
    <H_cAngle> = 0
    <J_re> = 0
    <J_im> = 0
    <Sigma> = 0
    <d_lam> = 0
    <Phi_h> = 0
    <Phi_hx> = 0
    <Phi_hy> = 0
    <LamType> = 0
    <LamFill> = 1
    <NStrands> = 0
    <WireD> = 0
    <BHPoints> = 0
  <EndBlock>
  <BeginBlock>
    <BlockName> = "Pure Iron"
    <Mu_x> = 14872
    <Mu_y> = 14872
    <H_c> = 0
    <H_cAngle> = 0
    <J_re> = 0
    <J_im> = 0
    <Sigma> = 10.44
    <d_lam> = 0
    <Phi_h> = 0
    <Phi_hx> = 0
    <Phi_hy> = 0
    <LamType> = 0
    <LamFill> = 1
    <NStrands> = 0
    <WireD> = 0
    <BHPoints> = 21
      0	0
      0.22706499999999999	13.898400000000001
      0.45412999999999998	27.796700000000001
      0.68119499999999999	42.397399999999998
      0.90825999999999996	61.415700000000001
      1.13533	82.382400000000004
      1.36239	144.66900000000001
      1.58935	897.75999999999999
      1.81236	4581.7399999999998
      2.01004	17736.200000000001
      2.1331600000000002	41339.300000000003
      2.1999900000000001	68321.800000000003
      2.2547899999999998	95685.5
      2.2999299999999998	123355
      2.3425099999999999	151083
      2.3787600000000002	178954
      2.4150100000000001	206825
      2.45126	234696
      2.4874999999999998	262568
      2.5237500000000002	290439
      2.5600000000000001	318310
  <EndBlock>
  <BeginBlock>
    <BlockName> = "22 AWG"
    <Mu_x> = 1
    <Mu_y> = 1
    <H_c> = 0
    <H_cAngle> = 0
    <J_re> = 0
    <J_im> = 0
    <Sigma> = 58
    <d_lam> = 0
    <Phi_h> = 0
    <Phi_hx> = 0
    <Phi_hy> = 0
    <LamType> = 3
    <LamFill> = 1
    <NStrands> = 1
    <WireD> = 0.64399170069399603
    <BHPoints> = 0
  <EndBlock>
  <BeginBlock>
    <BlockName> = "316 Stainless Steel"
    <Mu_x> = 1
    <Mu_y> = 1
    <H_c> = 0
    <H_cAngle> = 0
    <J_re> = 0
    <J_im> = 0
    <Sigma> = 1.3340000000000001
    <d_lam> = 0
    <Phi_h> = 0
    <Phi_hx> = 0
    <Phi_hy> = 0
    <LamType> = 0
    <LamFill> = 1
    <NStrands> = 0
    <WireD> = 0
    <BHPoints> = 0
  <EndBlock>
  <BeginBlock>
    <BlockName> = "Hot rolled low-carbon steel"
    <Mu_x> = 1
    <Mu_y> = 1
    <H_c> = 0
    <H_cAngle> = 0
    <J_re> = 0
    <J_im> = 0
    <Sigma> = 8.4100000000000001
    <d_lam> = 0
    <Phi_h> = 0
    <Phi_hx> = 0
    <Phi_hy> = 0
    <LamType> = 0
    <LamFill> = 1
    <NStrands> = 0
    <WireD> = 0
    <BHPoints> = 33
      0	0
      0.055400999999999999	54.381332999999998
      0.060842	55.520000000000003
      0.082604999999999998	60.317
      0.115245	67.594999999999999
      0.137462	73.435000000000002
      0.16012599999999999	78.954999999999998
      0.170096	81.445333000000005
      0.27701100000000001	104.38333299999999
      0.40698299999999998	129.63333299999999
      0.98336500000000004	266.46666699999997
      1.2471909999999999	470.42666700000001
      1.2917099999999999	538.19000000000005
      1.300298	555.16999999999996
      1.3030379999999999	560.95333300000004
      1.3139350000000001	584.68666700000006
      1.343923	655.25666699999999
      1.3630519999999999	704.53666699999997
      1.368071	719.28999999999996
      1.5479700000000001	1700.4333329999999
      1.571412	1945.866667
      1.627019	2826.9000000000001
      1.6312310000000001	2916.2333330000001
      1.6340079999999999	2977.4000000000001
      1.7342219999999999	6091.7333330000001
      1.866355	12988.333333
      1.9876050000000001	24965
      2.027377	32025
      2.1014330000000001	54377.333333000002
      2.1251829999999998	64205.333333000002
      2.4139740000000001	260993.33333299999
      2.461449	298746.66666699998
      2.4898319999999998	321280
  <EndBlock>
  <BeginBlock>
    <BlockName> = "Aluminum, 1100"
    <Mu_x> = 1
    <Mu_y> = 1
    <H_c> = 0
    <H_cAngle> = 0
    <J_re> = 0
    <J_im> = 0
    <Sigma> = 34.450000000000003
    <d_lam> = 0
    <Phi_h> = 0
    <Phi_hx> = 0
    <Phi_hy> = 0
    <LamType> = 0
    <LamFill> = 1
    <NStrands> = 0
    <WireD> = 0
    <BHPoints> = 0
  <EndBlock>
[CircuitProps]  = 5
  <BeginCircuit>
    <CircuitName> = "Ia"
    <TotalAmps_re> = 0
    <TotalAmps_im> = 0
    <CircuitType> = 1
  <EndCircuit>
  <BeginCircuit>
    <CircuitName> = "Ib"
    <TotalAmps_re> = 2
    <TotalAmps_im> = 0
    <CircuitType> = 1
  <EndCircuit>
  <BeginCircuit>
    <CircuitName> = "Ic"
    <TotalAmps_re> = 0
    <TotalAmps_im> = 0
    <CircuitType> = 1
  <EndCircuit>
  <BeginCircuit>
    <CircuitName> = "Id"
    <TotalAmps_re> = -2
    <TotalAmps_im> = 0
    <CircuitType> = 1
  <EndCircuit>
  <BeginCircuit>
    <CircuitName> = "Ie"
    <TotalAmps_re> = 0
    <TotalAmps_im> = 0
    <CircuitType> = 1
  <EndCircuit>
[NumPoints] = 144
-29.235851374942072	-5.0255609114608877	0	1
-13.267910145460732	-4.4679481165283592	0	1
-7.5450289357261644	-11.792902032962985	0	1
-11.949072858626149	-27.151628420994285	0	1
-4.2547824669941878	-29.357930687483172	0	1
0.14926145590581186	-13.999204299451796	0	1
8.884174160289696	-10.819956076142295	0	1
22.130266557471405	-19.754558212923037	0	1
26.606251195602525	-13.118638092767222	0	1
13.360158798420782	-4.1840359559865146	0	1
13.035750528758768	5.1058014211260971	0	1
25.626329771238684	14.94264001266952	0	1
20.698350019094065	21.250166460043822	0	1
8.1077707766141867	11.413327868500446	0	1
-0.82763726465234555	13.975514894205741	0	1
-6.2923237519326474	28.989617622407017	0	1
-13.813967372760334	26.251963231667396	0	1
-8.3492808854800913	11.237860503466244	0	1
-13.54725848866992	3.5315417937734463	0	1
-29.51519971815128	2.9739289988409325	0	1
-30.903165750063224	16.431504697506369	0	1
-29.681683365475585	-18.54717424816269	0	1
-27.13753907700616	-16.957416455463008	0	1
-31.110455873639591	-7.4926320698657669	0	1
-14.796369333869745	-28.373710623317738	0	1
-23.018873610837211	-22.229067854688502	0	1
-25.176893011853437	-24.313042966065602	0	1
8.4672663459886675	-33.960350419660678	0	1
7.7415006591896169	-31.049463240832576	0	1
-2.4877430134586636	-31.903152425724986	0	1
22.412672800565332	-22.840142248568782	0	1
14.027876697250887	-28.761409481573921	0	1
15.342990137618173	-31.457791620471433	0	1
34.914741759094703	-2.4414765810443306	0	1
31.922049608315142	-2.2322071598119937	0	1
29.572946136047097	-12.224600477500935	0	1
28.648162903349423	14.257726405819758	0	1
31.688578199730891	4.4535392307223312	0	1
34.659382405955796	4.871058533602552	0	1
13.111230769557132	32.451434909838362	0	1
11.98741098930936	29.669883346137851	0	1
20.764828873005587	24.347933831741276	0	1
-4.7071344110514897	31.651901769662359	0	1
5.5567416853418052	31.513848096391357	0	1
7.294425592366629	32.730587457468594	0	1
-26.811555509165004	22.497566339029234	0	1
-24.513422179807936	20.569203509969689	0	1
-16.739576121954357	27.272451141350516	0	1
-31.55733195899348	5.3042246964044537	0	1
-28.25432297148631	15.023090009148756	0	1
-0.13959798681001745	3.9975633080764643	0	1
0.13959798681001745	-3.9975633080764643	0	1
-9.0678063862474101	1.7846252664175983	0	1
-8.9212285000968325	-2.4128162070626904	0	1
0.24080652724728369	-6.895796706431943	0	1
0.38738441339780039	-11.093238179912216	0	1
8.9212285000968325	2.4128162070626904	0	1
9.0678063862473959	-1.7846252664176041	0	1
-0.38738441339780039	11.093238179912216	0	1
-0.24080652724728502	6.8957967064319501	0	1
6.0985003003436695	34.533871692684315	0	1
-50	-40	0	0
50	-40	0	0
-50	-50	0	0
50	-50	0	0
50	40	0	0
-50	40	0	0
-14.851264418476752	-4.5210557586139997	0	1
-14.781465425071666	-6.5198374126522891	0	1
-24.845172688667923	-4.8700507256390715	0	1
-24.7753736952628	-6.8688323796772597	0	1
-14.851188233682187	-4.5232374056884703	0	1
-24.845096503873272	-4.872232372713535	0	1
-15.200259385501747	5.4728525115771598	0	1
-15.130536576891439	3.4762525046133108	0	1
-15.13046039209679	3.4740708575388695	0	1
-25.124444847082483	3.1272575375882905	0	1
-25.12436866228801	3.1250758905138483	0	1
-25.194167655692929	5.1238575445520249	0	1
1.6330098383750373	-16.072749573977045	0	1
-1.1233637197950532	-25.685366533360444	0	1
-0.28741514143905178	-15.522076572319534	0	1
-3.043788699609042	-25.134693531702847	0	1
-9.9021305128850798	-12.765101304173051	0	1
-7.9817055330710485	-13.315774305830779	0	1
-7.9796071210083834	-13.316376015807105	0	1
-10.735980679178438	-22.928992975190589	0	1
-12.658504071055026	-22.377718263556488	0	1
10.197571269260434	-11.705853612139276	0	1
18.487946994810915	-17.297782646846759	0	1
15.790721009150401	-3.4136681167309311	0	1
14.673555907391485	-5.0699334919834715	0	1
22.963931632942032	-10.661862526690985	0	1
24.081096734700992	-9.0055971514385611	0	1
9.0804061675013301	-13.362118987391717	0	1
17.370781893052001	-18.954048022099215	0	1
14.284151180173401	6.0811589061979783	0	1
22.164258716240706	12.237773659454604	0	1
8.1261924521469613	13.962986651525494	0	1
9.3561714280287891	12.38868535357228	0	1
9.3575154027983825	12.386965144312036	0	1
17.236278964096073	18.545300106829021	0	1
17.237622938865755	18.543579897568815	0	1
16.00629998821438	20.119601404782205	0	1
15.514130156055074	4.5068576082446326	0	1
14.28280720540377	6.0828791154581987	0	1
22.162914741471198	12.239493868714954	0	1
23.394237692122424	10.663472361501466	0	1
-1.3694803394713597	15.464216507158749	0	1
-4.7896817727280663	24.861142715017905	0	1
-10.768457874600738	12.043268451834777	0	1
-8.8911239602990282	12.726562116419156	0	1
-8.8890726330288636	12.727308738486208	0	1
-12.31132539355584	22.123488324278341	0	1
-12.309274066285685	22.124234946345496	0	1
-14.188659307857463	21.440194659694065	0	1
0.50785357483041427	16.147510171742955	0	1
-1.3715316667415074	15.463469885091641	0	1
-4.7917330999982983	24.860396092950978	0	1
-2.9123478584264433	25.544436379602224	0	1
-10.738079091241032	-22.928391265214007	0	1
80	80	0	0
-80	80	0	0
80	-80	0	0
-80	-80	0	0
-37	15	0	0
-37	-15	0	0
-40	-15	0	0
-40	15	0	0
37	15	0	0
40	15	0	0
40	-15	0	0
37	-15	0	0
-43	40	0	0
-43	-40	0	0
43	40	0	0
43	-40	0	0
-43	15	0	0
-43	-15	0	0
43	15	0	0
43	-15	0	0
-50	0	0	0
50	0	0	0
-10	7.2999999999999998	0	0
[NumSegments] = 106
0	72	-1	0	0	1
2	84	-1	0	0	1
84	120	-1	0	0	1
4	82	-1	0	0	1
82	81	-1	0	0	1
81	5	-1	0	0	1
6	88	-1	0	0	1
88	89	-1	0	0	1
89	7	-1	0	0	1
8	92	-1	0	0	1
92	91	-1	0	0	1
91	9	-1	0	0	1
10	96	-1	0	0	1
96	97	-1	0	0	1
97	11	-1	0	0	1
12	101	-1	0	0	1
101	99	-1	0	0	1
99	13	-1	0	0	1
14	108	-1	0	0	1
108	109	-1	0	0	1
109	15	-1	0	0	1
16	113	-1	0	0	1
113	111	-1	0	0	1
111	17	-1	0	0	1
18	74	-1	0	0	1
74	76	-1	0	0	1
76	19	-1	0	0	1
71	1	-1	0	0	1
68	71	-1	0	0	1
71	67	-1	0	0	1
72	71	-1	0	0	1
69	72	-1	0	0	1
72	70	-1	0	0	1
68	70	-1	0	0	1
73	74	-1	0	0	1
74	75	-1	0	0	1
77	76	-1	0	0	1
76	78	-1	0	0	1
73	78	-1	0	0	1
90	91	-1	0	0	1
92	93	-1	0	0	1
90	93	-1	0	0	1
94	88	-1	0	0	1
89	95	-1	0	0	1
94	95	-1	0	0	1
98	99	-1	0	0	1
99	100	-1	0	0	1
102	101	-1	0	0	1
101	103	-1	0	0	1
98	103	-1	0	0	1
104	96	-1	0	0	1
96	105	-1	0	0	1
106	97	-1	0	0	1
97	107	-1	0	0	1
104	107	-1	0	0	1
110	111	-1	0	0	1
111	112	-1	0	0	1
114	113	-1	0	0	1
113	115	-1	0	0	1
110	115	-1	0	0	1
116	108	-1	0	0	1
108	117	-1	0	0	1
118	109	-1	0	0	1
109	119	-1	0	0	1
116	119	-1	0	0	1
120	3	-1	0	0	1
86	120	-1	0	0	1
120	87	-1	0	0	1
83	87	-1	0	0	1
85	84	-1	0	0	1
84	83	-1	0	0	1
82	80	-1	0	0	1
80	79	-1	0	0	1
79	81	-1	0	0	1
122	124	-1	0	0	0
124	123	-1	0	0	0
123	121	-1	0	0	0
122	121	-1	0	0	0
128	127	-1	0	0	0
130	131	-1	0	0	0
128	125	-1	0	0	0
126	127	-1	0	0	0
126	125	-1	0	0	0
132	131	-1	0	0	0
132	129	-1	0	0	0
129	130	-1	0	0	0
138	137	-1	0	0	0
140	139	-1	0	0	0
130	139	-1	0	0	0
131	140	-1	0	0	0
137	128	-1	0	0	0
138	127	-1	0	0	0
66	133	-1	0	0	0
133	137	-1	0	0	0
138	134	-1	0	0	0
134	136	-1	0	0	0
136	140	-1	0	0	0
139	135	-1	0	0	0
135	65	-1	0	0	0
65	142	-1	0	0	0
142	62	-1	0	0	0
62	64	-1	0	0	0
64	63	-1	0	0	0
63	61	-1	0	0	0
61	141	-1	0	0	0
141	66	-1	0	0	0
[NumArcSegments] = 51
20	21	59.999999999999922	5	0	0	1	5
21	22	179.99999999999997	5	0	0	1	5
23	22	18.458785784691063	5	0	0	1	5
0	23	101.54121421530873	5	0	0	1	5
1	2	38.778255215453811	5	0	0	1	5
24	3	101.54121421530898	5	0	0	1	5
25	24	18.458785784691038	5	0	0	1	5
25	26	179.99999999999997	5	0	0	1	5
26	27	60.000000000000021	5	0	0	1	5
27	28	179.99999914622637	5	0	0	1	5
29	28	18.458785784691063	5	0	0	1	5
4	29	101.54121421530849	5	0	0	1	5
5	6	38.778255215453768	5	0	0	1	5
30	7	101.54121421531023	5	0	0	1	5
31	30	18.458785784691127	5	0	0	1	5
31	32	179.99999999999997	5	0	0	1	5
32	33	59.999999999999943	5	0	0	1	5
33	34	179.99999999999997	5	0	0	1	5
35	34	18.458785784691038	5	0	0	1	5
8	35	101.54121421530745	5	0	0	1	5
9	10	38.778255215453704	5	0	0	1	5
36	11	101.54121421530752	5	0	0	1	5
37	36	18.458785784691038	5	0	0	1	5
37	38	179.99999999999997	5	0	0	1	5
38	39	59.999999999999943	5	0	0	1	5
39	40	179.99999999999997	5	0	0	1	5
41	40	18.458785784691063	5	0	0	1	5
12	41	101.54121421531023	5	0	0	1	5
13	14	38.778255215453768	5	0	0	1	5
42	15	101.54121421530846	5	0	0	1	5
43	42	18.458785784691063	5	0	0	1	5
43	44	90.000000426886785	5	0	0	1	5
45	46	179.99999999999997	5	0	0	1	5
47	46	18.458785784691127	5	0	0	1	5
16	47	101.54121421530763	5	0	0	1	5
17	18	38.778255215453768	5	0	0	1	5
48	19	101.54121421530873	5	0	0	1	5
49	48	18.458785784691084	5	0	0	1	5
49	20	179.99999999999997	5	0	0	1	5
50	51	180	5	0	0	1	5
51	50	180	5	0	0	1	5
52	53	180	5	0	0	1	5
53	52	180	5	0	0	1	5
54	55	180	5	0	0	1	5
55	54	180	5	0	0	1	5
56	57	180	5	0	0	1	5
57	56	180	5	0	0	1	5
58	59	180	5	0	0	1	5
59	58	180	5	0	0	1	5
60	45	60	1	0	0	1	1
44	60	90	1	0	0	1	1
[NumHoles] = 0
[NumBlockLabels] = 22
38.200000000000003	1.8999999999999999	1	-1	0	0	0	1	0
6.88976784129094	6.1441923060005932	6	-1	0	0	1	1	0
-28.800000000000001	36	2	-1	0	0	0	1	0
-9.097946475544223	-0.21764633729089233	6	-1	0	0	1	1	0
8.7946392777682334	0.30711557098203546	6	-1	0	0	1	1	0
-0.61740266809851319	9.0839866768631836	6	-1	0	0	1	1	0
0.20717648828008839	-8.7981292274384622	6	-1	0	0	1	1	0
1.499086240528676	0.05234924505375782	6	-1	0	0	1	1	0
-10.458067339926647	-18.576297465145792	4	-1	2	0	1	-55	0
-0.68021752575519834	-20.636310331977324	4	-1	2	0	1	55	0
12.737000238192211	-15.164723041727557	4	-1	3	0	1	-55	0
19.660398118450363	-7.118198214720584	4	-1	3	0	1	55	0
18.323433207616567	8.2445009240118701	4	-1	4	0	1	-55	0
11.765524772127399	15.520065297429571	4	-1	4	0	1	55	0
-2.7630806318231365	21.816860118313663	4	-1	5	0	1	-55	0
-11.428591771792085	17.811998487360956	4	-1	5	0	1	55	0
-21.172174699924749	4.5638819524487202	4	-1	1	0	1	-55	0
-20.412953553081376	-5.7158837671671927	4	-1	1	0	1	55	0
41.299999999999997	-1.1000000000000001	1	-1	0	0	0	1	0
-41.600000000000001	-5.0999999999999996	1	-1	0	0	0	1	0
48.899999999999999	-21.600000000000001	7	-1	0	0	0	1	0
-38.299999999999997	2.6000000000000001	1	-1	0	0	0	1	0
