[Format]      =  4.0
[Frequency]   =  0
[Precision]   =  1e-008
[MinAngle]    =  30
[DoSmartMesh] =  1
[Depth]       =  45
[LengthUnits] =  millimeters
[ProblemType] =  planar
[Coordinates] =  cartesian
[ACSolver]    =  0
[PrevType]    =  0
[PrevSoln]    =  ""
[Comment]     =  "Add comments here."
[PointProps]   = 0
[BdryProps]   = 0
[BlockProps]  = 7
  <BeginBlock>
    <BlockName> = "N52"
    <Mu_x> = 1.05
    <Mu_y> = 1.05
    <H_c> = 956180
    <H_cAngle> = 0
    <J_re> = 0
    <J_im> = 0
    <Sigma> = 0.66700000000000004
    <d_lam> = 0
    <Phi_h> = 0
    <Phi_hx> = 0
    <Phi_hy> = 0
    <LamType> = 0
    <LamFill> = 1
    <NStrands> = 0
    <WireD> = 0
    <BHPoints> = 8
      0	0
      0.073200000000000001	7484
      0.1464	18446
      0.2195	37084
      0.29270000000000002	72766
      0.3659	124571
      0.43909999999999999	179757
      1.4636	956180
  <EndBlock>
  <BeginBlock>
    <BlockName> = "Air"
    <Mu_x> = 1
    <Mu_y> = 1
    <H_c> = 0
    <H_cAngle> = 0
    <J_re> = 0
    <J_im> = 0
    <Sigma> = 0
    <d_lam> = 0
    <Phi_h> = 0
    <Phi_hx> = 0
    <Phi_hy> = 0
    <LamType> = 0
    <LamFill> = 1
    <NStrands> = 0
    <WireD> = 0
    <BHPoints> = 0
  <EndBlock>
  <BeginBlock>
    <BlockName> = "Pure Iron"
    <Mu_x> = 14872
    <Mu_y> = 14872
    <H_c> = 0
    <H_cAngle> = 0
    <J_re> = 0
    <J_im> = 0
    <Sigma> = 10.44
    <d_lam> = 0
    <Phi_h> = 0
    <Phi_hx> = 0
    <Phi_hy> = 0
    <LamType> = 0
    <LamFill> = 1
    <NStrands> = 0
    <WireD> = 0
    <BHPoints> = 21
      0	0
      0.22706499999999999	13.898400000000001
      0.45412999999999998	27.796700000000001
      0.68119499999999999	42.397399999999998
      0.90825999999999996	61.415700000000001
      1.13533	82.382400000000004
      1.36239	144.66900000000001
      1.58935	897.75999999999999
      1.81236	4581.7399999999998
      2.01004	17736.200000000001
      2.1331600000000002	41339.300000000003
      2.1999900000000001	68321.800000000003
      2.2547899999999998	95685.5
      2.2999299999999998	123355
      2.3425099999999999	151083
      2.3787600000000002	178954
      2.4150100000000001	206825
      2.45126	234696
      2.4874999999999998	262568
      2.5237500000000002	290439
      2.5600000000000001	318310
  <EndBlock>
  <BeginBlock>
    <BlockName> = "22 AWG"
    <Mu_x> = 1
    <Mu_y> = 1
    <H_c> = 0
    <H_cAngle> = 0
    <J_re> = 0
    <J_im> = 0
    <Sigma> = 58
    <d_lam> = 0
    <Phi_h> = 0
    <Phi_hx> = 0
    <Phi_hy> = 0
    <LamType> = 3
    <LamFill> = 1
    <NStrands> = 1
    <WireD> = 0.64399170069399603
    <BHPoints> = 0
  <EndBlock>
  <BeginBlock>
    <BlockName> = "316 Stainless Steel"
    <Mu_x> = 1
    <Mu_y> = 1
    <H_c> = 0
    <H_cAngle> = 0
    <J_re> = 0
    <J_im> = 0
    <Sigma> = 1.3340000000000001
    <d_lam> = 0
    <Phi_h> = 0
    <Phi_hx> = 0
    <Phi_hy> = 0
    <LamType> = 0
    <LamFill> = 1
    <NStrands> = 0
    <WireD> = 0
    <BHPoints> = 0
  <EndBlock>
  <BeginBlock>
    <BlockName> = "Hot rolled low-carbon steel"
    <Mu_x> = 1
    <Mu_y> = 1
    <H_c> = 0
    <H_cAngle> = 0
    <J_re> = 0
    <J_im> = 0
    <Sigma> = 8.4100000000000001
    <d_lam> = 0
    <Phi_h> = 0
    <Phi_hx> = 0
    <Phi_hy> = 0
    <LamType> = 0
    <LamFill> = 1
    <NStrands> = 0
    <WireD> = 0
    <BHPoints> = 33
      0	0
      0.055400999999999999	54.381332999999998
      0.060842	55.520000000000003
      0.082604999999999998	60.317
      0.115245	67.594999999999999
      0.137462	73.435000000000002
      0.16012599999999999	78.954999999999998
      0.170096	81.445333000000005
      0.27701100000000001	104.38333299999999
      0.40698299999999998	129.63333299999999
      0.98336500000000004	266.46666699999997
      1.2471909999999999	470.42666700000001
      1.2917099999999999	538.19000000000005
      1.300298	555.16999999999996
      1.3030379999999999	560.95333300000004
      1.3139350000000001	584.68666700000006
      1.343923	655.25666699999999
      1.3630519999999999	704.53666699999997
      1.368071	719.28999999999996
      1.5479700000000001	1700.4333329999999
      1.571412	1945.866667
      1.627019	2826.9000000000001
      1.6312310000000001	2916.2333330000001
      1.6340079999999999	2977.4000000000001
      1.7342219999999999	6091.7333330000001
      1.866355	12988.333333
      1.9876050000000001	24965
      2.027377	32025
      2.1014330000000001	54377.333333000002
      2.1251829999999998	64205.333333000002
      2.4139740000000001	260993.33333299999
      2.461449	298746.66666699998
      2.4898319999999998	321280
  <EndBlock>
  <BeginBlock>
    <BlockName> = "Aluminum, 1100"
    <Mu_x> = 1
    <Mu_y> = 1
    <H_c> = 0
    <H_cAngle> = 0
    <J_re> = 0
    <J_im> = 0
    <Sigma> = 34.450000000000003
    <d_lam> = 0
    <Phi_h> = 0
    <Phi_hx> = 0
    <Phi_hy> = 0
    <LamType> = 0
    <LamFill> = 1
    <NStrands> = 0
    <WireD> = 0
    <BHPoints> = 0
  <EndBlock>
[CircuitProps]  = 5
  <BeginCircuit>
    <CircuitName> = "Ia"
    <TotalAmps_re> = 2
    <TotalAmps_im> = 0
    <CircuitType> = 1
  <EndCircuit>
  <BeginCircuit>
    <CircuitName> = "Ib"
    <TotalAmps_re> = 2
    <TotalAmps_im> = 0
    <CircuitType> = 1
  <EndCircuit>
  <BeginCircuit>
    <CircuitName> = "Ic"
    <TotalAmps_re> = 2
    <TotalAmps_im> = 0
    <CircuitType> = 1
  <EndCircuit>
  <BeginCircuit>
    <CircuitName> = "Id"
    <TotalAmps_re> = -2
    <TotalAmps_im> = 0
    <CircuitType> = 1
  <EndCircuit>
  <BeginCircuit>
    <CircuitName> = "Ie"
    <TotalAmps_re> = -2
    <TotalAmps_im> = 0
    <CircuitType> = 1
  <EndCircuit>
[NumPoints] = 137
22.806209536235613	18.970189105062229	0	1
9.2563731828341087	10.503311644434755	0	1
0.63773571414603936	13.985467212750176	0	1
-3.2276135632557423	29.488536396009685	0	1
-10.994215639747974	27.552105011400268	0	1
-7.1288663623461748	12.049035828140688	0	1
-13.103898552527303	4.9282697496261836	0	1
-29.042652137752938	6.0428159741941876	0	1
-29.601008481245493	-1.9420517464105931	0	1
-13.662254896019837	-3.0565979709785527	0	1
-8.7363904047384793	-10.939629001753266	0	1
-14.721732581315418	-25.753870736196955	0	1
-7.3002137029356859	-28.75235899859301	0	1
-1.314871526358762	-13.938117264149374	0	1
7.7045123434104612	-11.689332297023796	0	1
19.944121029213377	-21.959583431035202	0	1
25.089228287693516	-15.827883371458842	0	1
12.849619601890709	-5.5576322374475122	0	1
13.498040899709256	3.7152243364006807	0	1
27.047877253110777	12.182101797028148	0	1
34.978678945669124	1.2214823845877341	0	1
16.431504697506519	30.903165750063206	0	1
15.023090009148753	28.254322971486307	0	1
23.196129074953813	22.044037650533514	0	1
-1.3728235847506181	31.970538866356428	0	1
8.8203953861440212	30.760374270026894	0	1
9.6473074535952072	33.644159357842085	0	1
-24.313042966065545	25.176893011853352	0	1
-22.229067854688456	23.018873610837318	0	1
-13.797127565120022	28.872811968214304	0	1
-30.83001513628248	8.5738070130281443	0	1
-26.529202321761961	17.894172911064206	0	1
-29.016315039427145	19.571751621476434	0	1
-31.457791620471561	-15.342990137618161	0	1
-28.761409481573999	-14.027876697250852	0	1
-31.723222857316109	-4.199658503392337	0	1
-17.681173643145694	-26.671634719322803	0	1
-25.216344115415549	-19.701167210421573	0	1
-27.580376376235876	-21.548151636398661	0	1
4.8710585336024863	-34.659382405955768	0	1
4.4535392307222459	-31.688578199730902	0	1
-5.8089023933888146	-31.468343664453318	0	1
19.902448863829655	-25.0577838050915	0	1
10.944644586421701	-30.070163865149688	0	1
10.048135859729422	-31.992733015139443	0	1
34.468271355428115	-6.077686218342512	0	1
31.513848096391413	-5.5567416853418425	0	1
28.133123740871117	-15.248847450902291	0	1
29.981563500349125	11.185072645029662	0	1
31.98050646461175	1.1167838944801236	0	1
2.1196770569328707	-3.3921923846257691	0	1
-2.1196770569328707	3.3921923846257691	0	1
8.7452633202978234	2.9883723761704855	0	1
6.5196024105182602	6.5501743800275181	0	1
-3.6564429232092248	5.8515318634794857	0	1
-5.8821038329887285	9.413333867336533	0	1
-6.5196024105182602	-6.5501743800275181	0	1
-8.7452633202978163	-2.9883723761704744	0	1
5.8821038329887285	-9.413333867336533	0	1
3.6564429232092284	-5.8515318634794902	0	1
11.985479661257486	-32.956460327068768	0	1
-40	-40	0	0
40	-40	0	0
-50	-40	0	0
50	-40	0	0
-50	-50	0	0
50	-50	0	0
40	40	0	0
50	40	0	0
-50	40	0	0
-40	40	0	0
-40	7.5	0	0
-40	-7.5	0	0
-37	7.5	0	0
-37	-7.5	0	0
40	7.5	0	0
40	-7.5	0	0
37	7.5	0	0
37	-7.5	0	0
-60	-60	0	0
60	60	0	0
-60	60	0	0
60	-60	0	0
10.6010443854138	11.340981348124018	0	1
9.5412058569472755	13.037077540436917	0	1
19.081525346978225	16.640173990456226	0	1
18.021686818511707	18.336270182769006	0	1
10.599887583909091	11.342832617515318	0	1
19.080368545473441	16.642025259847472	0	1
15.900237027745934	2.8605003865595746	0	1
14.841555300784282	4.5547453094813015	0	1
14.840398499279512	4.5565965788725329	0	1
23.322036262348611	9.8539379518133963	0	1
23.320879460844004	9.8557892212047271	0	1
24.380717989310327	8.1596930288918355	0	1
-9.4506027916512139	13.102904520542122	0	1
-11.869821747647901	22.805861783302312	0	1
-7.5121294722412406	13.586220201835525	0	1
-9.9313484282379783	23.2891774645956	0	1
2.1929459236609983	16.005967267738267	0	1
0.25447260425096285	15.522651586445077	0	1
0.25235447110892295	15.522123476538955	0	1
-2.1668644848878369	25.225080739299205	0	1
-0.22627303233583795	25.708924530498425	0	1
-14.684282582151489	5.0387809664642358	0	1
-24.659923084749789	5.7363457039054824	0	1
-15.381999596362361	-4.9390371953972201	0	1
-15.242638925643982	-2.9460867541404951	0	1
-25.218279428242361	-2.2485220166992637	0	1
-25.357640098960836	-4.2414724579559095	0	1
-14.544921911432899	7.0317314077209705	0	1
-24.520562414031378	7.7292961451621336	0	1
-9.3298583404286504	-12.408513687304129	0	1
-13.075924274587834	-21.680352232972076	0	1
-0.055995773837895335	-16.155397378997574	0	1
-1.9083394620489296	-15.407001949700183	0	1
-1.9103634829715652	-15.406184192165783	0	1
-5.6544053962080323	-24.678840495368224	0	1
-5.6564294171307266	-24.678022737833906	0	1
-3.8020617079971277	-25.427235924665645	0	1
-11.182202028639621	-11.660118258006555	0	1
-9.3278343195059961	-12.409331444838491	0	1
-13.073900253665213	-21.681169990506614	0	1
-14.928267962798733	-20.931956803674705	0	1
8.9181130175449006	-12.707664175086464	0	1
16.578557448734735	-19.135540271951918	0	1
15.347392304904204	-5.0455474865842449	0	1
14.063220276025035	-6.5759641155101329	0	1
14.061817085531127	-6.57763637282231	0	1
21.723664707214976	-13.003840212375556	0	1
21.722261516721112	-13.005512469687813	0	1
23.007836736094117	-11.473423583449801	0	1
7.6339409886655876	-14.238080804012235	0	1
8.91951620803877	-12.705991917774242	0	1
16.579960639228759	-19.133868014639816	0	1
15.294385419855603	-20.665956900877706	0	1
-2.1647463517457357	25.225608849205067	0	1
[NumSegments] = 98
0	88	-1	0	0	1
2	100	-1	0	0	1
100	136	-1	0	0	1
4	98	-1	0	0	1
98	97	-1	0	0	1
97	5	-1	0	0	1
6	104	-1	0	0	1
104	105	-1	0	0	1
105	7	-1	0	0	1
8	108	-1	0	0	1
108	107	-1	0	0	1
107	9	-1	0	0	1
10	112	-1	0	0	1
112	113	-1	0	0	1
113	11	-1	0	0	1
12	117	-1	0	0	1
117	115	-1	0	0	1
115	13	-1	0	0	1
14	124	-1	0	0	1
124	125	-1	0	0	1
125	15	-1	0	0	1
16	129	-1	0	0	1
129	127	-1	0	0	1
127	17	-1	0	0	1
18	90	-1	0	0	1
90	92	-1	0	0	1
92	19	-1	0	0	1
69	70	-1	0	0	0
61	62	-1	0	0	0
70	71	-1	0	0	0
62	76	-1	0	0	0
68	67	-1	0	0	0
68	64	-1	0	0	0
66	64	-1	0	0	0
66	65	-1	0	0	0
65	63	-1	0	0	0
63	69	-1	0	0	0
71	72	-1	0	0	0
72	61	-1	0	0	0
75	67	-1	0	0	0
76	75	-1	0	0	0
71	73	-1	0	0	0
73	74	-1	0	0	0
74	72	-1	0	0	0
78	76	-1	0	0	0
75	77	-1	0	0	0
77	78	-1	0	0	0
81	80	-1	0	0	0
82	80	-1	0	0	0
81	79	-1	0	0	0
79	82	-1	0	0	0
87	1	-1	0	0	1
84	87	-1	0	0	1
87	83	-1	0	0	1
88	87	-1	0	0	1
85	88	-1	0	0	1
88	86	-1	0	0	1
84	86	-1	0	0	1
89	90	-1	0	0	1
90	91	-1	0	0	1
93	92	-1	0	0	1
92	94	-1	0	0	1
89	94	-1	0	0	1
106	107	-1	0	0	1
108	109	-1	0	0	1
106	109	-1	0	0	1
110	104	-1	0	0	1
105	111	-1	0	0	1
110	111	-1	0	0	1
114	115	-1	0	0	1
115	116	-1	0	0	1
118	117	-1	0	0	1
117	119	-1	0	0	1
114	119	-1	0	0	1
120	112	-1	0	0	1
112	121	-1	0	0	1
122	113	-1	0	0	1
113	123	-1	0	0	1
120	123	-1	0	0	1
126	127	-1	0	0	1
127	128	-1	0	0	1
130	129	-1	0	0	1
129	131	-1	0	0	1
126	131	-1	0	0	1
132	124	-1	0	0	1
124	133	-1	0	0	1
134	125	-1	0	0	1
125	135	-1	0	0	1
132	135	-1	0	0	1
136	3	-1	0	0	1
102	136	-1	0	0	1
136	103	-1	0	0	1
99	103	-1	0	0	1
101	100	-1	0	0	1
100	99	-1	0	0	1
98	96	-1	0	0	1
96	95	-1	0	0	1
95	97	-1	0	0	1
[NumArcSegments] = 51
20	21	59.999999999999922	5	0	0	1	5
21	22	179.99999999999997	5	0	0	1	5
23	22	18.458785784691063	5	0	0	1	5
0	23	101.54121421530873	5	0	0	1	5
1	2	38.778255215453811	5	0	0	1	5
24	3	101.54121421530898	5	0	0	1	5
25	24	18.458785784691038	5	0	0	1	5
25	26	179.99999999999997	5	0	0	1	5
26	27	60.000000000000021	5	0	0	1	5
27	28	179.99999914622637	5	0	0	1	5
29	28	18.458785784691063	5	0	0	1	5
4	29	101.54121421530849	5	0	0	1	5
5	6	38.778255215453768	5	0	0	1	5
30	7	101.54121421531023	5	0	0	1	5
31	30	18.458785784691127	5	0	0	1	5
31	32	179.99999999999997	5	0	0	1	5
32	33	59.999999999999943	5	0	0	1	5
33	34	179.99999999999997	5	0	0	1	5
35	34	18.458785784691038	5	0	0	1	5
8	35	101.54121421530745	5	0	0	1	5
9	10	38.778255215453704	5	0	0	1	5
36	11	101.54121421530752	5	0	0	1	5
37	36	18.458785784691038	5	0	0	1	5
37	38	179.99999999999997	5	0	0	1	5
38	39	59.999999999999943	5	0	0	1	5
39	40	179.99999999999997	5	0	0	1	5
41	40	18.458785784691063	5	0	0	1	5
12	41	101.54121421531023	5	0	0	1	5
13	14	38.778255215453768	5	0	0	1	5
42	15	101.54121421530846	5	0	0	1	5
43	42	18.458785784691063	5	0	0	1	5
43	44	90.000000426886785	5	0	0	1	5
45	46	179.99999999999997	5	0	0	1	5
47	46	18.458785784691127	5	0	0	1	5
16	47	101.54121421530763	5	0	0	1	5
17	18	38.778255215453768	5	0	0	1	5
48	19	101.54121421530873	5	0	0	1	5
49	48	18.458785784691084	5	0	0	1	5
49	20	179.99999999999997	5	0	0	1	5
50	51	180	5	0	0	1	5
51	50	180	5	0	0	1	5
52	53	180	5	0	0	1	5
53	52	180	5	0	0	1	5
54	55	180	5	0	0	1	5
55	54	180	5	0	0	1	5
56	57	180	5	0	0	1	5
57	56	180	5	0	0	1	5
58	59	180	5	0	0	1	5
59	58	180	5	0	0	1	5
60	45	60	1	0	0	1	1
44	60	90	1	0	0	1	1
[NumHoles] = 0
[NumBlockLabels] = 20
4.9000000000000004	-44.700000000000003	7	-1	0	0	0	1	0
38.200000000000003	1.8999999999999999	1	-1	0	0	0	1	0
-39.5	0.29999999999999999	1	-1	0	0	0	1	0
-2.8946178237347375	-8.7659105433788707	6	-1	0	0	1	1	0
-28.800000000000001	36	2	-1	0	0	0	1	0
7.7702296014469532	4.7374604949066548	6	-1	0	0	1	1	0
-7.4628232461767032	-4.663289525252317	6	-1	0	0	1	1	0
5.0766797333691898	-7.5582618957536472	6	-1	0	0	1	1	0
-4.5784847156366322	7.5158151726000231	6	-1	0	0	1	1	0
-1.2720721442346645	-0.79487889634982867	6	-1	0	0	1	1	0
-0.23119674170806093	21.316579183036055	4	-1	2	0	1	-55	0
-9.7290695085852441	18.211677750749246	4	-1	2	0	1	55	0
-18.612927295146672	6.7645352763951943	4	-1	3	0	1	-55	0
-20.585503326454088	-3.6656585761041036	4	-1	3	0	1	55	0
-11.746308180337401	-16.301663845526829	4	-1	4	0	1	-55	0
-2.4292106928026751	-19.323533202030994	4	-1	4	0	1	55	0
13.301328079020411	-17.512414777359645	4	-1	5	0	1	-55	0
18.803450047534223	-9.7113472963285545	4	-1	5	0	1	55	0
20.617582119721369	6.6336496392684419	4	-1	1	0	1	-55	0
14.820194459656701	15.156577323986557	4	-1	1	0	1	55	0
