[Format]      =  4.0
[Frequency]   =  0
[Precision]   =  1e-008
[MinAngle]    =  30
[DoSmartMesh] =  1
[Depth]       =  45
[LengthUnits] =  millimeters
[ProblemType] =  planar
[Coordinates] =  cartesian
[ACSolver]    =  0
[PrevType]    =  0
[PrevSoln]    =  ""
[Comment]     =  "Add comments here."
[PointProps]   = 0
[BdryProps]   = 0
[BlockProps]  = 7
  <BeginBlock>
    <BlockName> = "N52"
    <Mu_x> = 1.05
    <Mu_y> = 1.05
    <H_c> = 956180
    <H_cAngle> = 0
    <J_re> = 0
    <J_im> = 0
    <Sigma> = 0.66700000000000004
    <d_lam> = 0
    <Phi_h> = 0
    <Phi_hx> = 0
    <Phi_hy> = 0
    <LamType> = 0
    <LamFill> = 1
    <NStrands> = 0
    <WireD> = 0
    <BHPoints> = 8
      0	0
      0.073200000000000001	7484
      0.1464	18446
      0.2195	37084
      0.29270000000000002	72766
      0.3659	124571
      0.43909999999999999	179757
      1.4636	956180
  <EndBlock>
  <BeginBlock>
    <BlockName> = "Air"
    <Mu_x> = 1
    <Mu_y> = 1
    <H_c> = 0
    <H_cAngle> = 0
    <J_re> = 0
    <J_im> = 0
    <Sigma> = 0
    <d_lam> = 0
    <Phi_h> = 0
    <Phi_hx> = 0
    <Phi_hy> = 0
    <LamType> = 0
    <LamFill> = 1
    <NStrands> = 0
    <WireD> = 0
    <BHPoints> = 0
  <EndBlock>
  <BeginBlock>
    <BlockName> = "Pure Iron"
    <Mu_x> = 14872
    <Mu_y> = 14872
    <H_c> = 0
    <H_cAngle> = 0
    <J_re> = 0
    <J_im> = 0
    <Sigma> = 10.44
    <d_lam> = 0
    <Phi_h> = 0
    <Phi_hx> = 0
    <Phi_hy> = 0
    <LamType> = 0
    <LamFill> = 1
    <NStrands> = 0
    <WireD> = 0
    <BHPoints> = 21
      0	0
      0.22706499999999999	13.898400000000001
      0.45412999999999998	27.796700000000001
      0.68119499999999999	42.397399999999998
      0.90825999999999996	61.415700000000001
      1.13533	82.382400000000004
      1.36239	144.66900000000001
      1.58935	897.75999999999999
      1.81236	4581.7399999999998
      2.01004	17736.200000000001
      2.1331600000000002	41339.300000000003
      2.1999900000000001	68321.800000000003
      2.2547899999999998	95685.5
      2.2999299999999998	123355
      2.3425099999999999	151083
      2.3787600000000002	178954
      2.4150100000000001	206825
      2.45126	234696
      2.4874999999999998	262568
      2.5237500000000002	290439
      2.5600000000000001	318310
  <EndBlock>
  <BeginBlock>
    <BlockName> = "22 AWG"
    <Mu_x> = 1
    <Mu_y> = 1
    <H_c> = 0
    <H_cAngle> = 0
    <J_re> = 0
    <J_im> = 0
    <Sigma> = 58
    <d_lam> = 0
    <Phi_h> = 0
    <Phi_hx> = 0
    <Phi_hy> = 0
    <LamType> = 3
    <LamFill> = 1
    <NStrands> = 1
    <WireD> = 0.64399170069399603
    <BHPoints> = 0
  <EndBlock>
  <BeginBlock>
    <BlockName> = "316 Stainless Steel"
    <Mu_x> = 1
    <Mu_y> = 1
    <H_c> = 0
    <H_cAngle> = 0
    <J_re> = 0
    <J_im> = 0
    <Sigma> = 1.3340000000000001
    <d_lam> = 0
    <Phi_h> = 0
    <Phi_hx> = 0
    <Phi_hy> = 0
    <LamType> = 0
    <LamFill> = 1
    <NStrands> = 0
    <WireD> = 0
    <BHPoints> = 0
  <EndBlock>
  <BeginBlock>
    <BlockName> = "Hot rolled low-carbon steel"
    <Mu_x> = 1
    <Mu_y> = 1
    <H_c> = 0
    <H_cAngle> = 0
    <J_re> = 0
    <J_im> = 0
    <Sigma> = 8.4100000000000001
    <d_lam> = 0
    <Phi_h> = 0
    <Phi_hx> = 0
    <Phi_hy> = 0
    <LamType> = 0
    <LamFill> = 1
    <NStrands> = 0
    <WireD> = 0
    <BHPoints> = 33
      0	0
      0.055400999999999999	54.381332999999998
      0.060842	55.520000000000003
      0.082604999999999998	60.317
      0.115245	67.594999999999999
      0.137462	73.435000000000002
      0.16012599999999999	78.954999999999998
      0.170096	81.445333000000005
      0.27701100000000001	104.38333299999999
      0.40698299999999998	129.63333299999999
      0.98336500000000004	266.46666699999997
      1.2471909999999999	470.42666700000001
      1.2917099999999999	538.19000000000005
      1.300298	555.16999999999996
      1.3030379999999999	560.95333300000004
      1.3139350000000001	584.68666700000006
      1.343923	655.25666699999999
      1.3630519999999999	704.53666699999997
      1.368071	719.28999999999996
      1.5479700000000001	1700.4333329999999
      1.571412	1945.866667
      1.627019	2826.9000000000001
      1.6312310000000001	2916.2333330000001
      1.6340079999999999	2977.4000000000001
      1.7342219999999999	6091.7333330000001
      1.866355	12988.333333
      1.9876050000000001	24965
      2.027377	32025
      2.1014330000000001	54377.333333000002
      2.1251829999999998	64205.333333000002
      2.4139740000000001	260993.33333299999
      2.461449	298746.66666699998
      2.4898319999999998	321280
  <EndBlock>
  <BeginBlock>
    <BlockName> = "Aluminum, 1100"
    <Mu_x> = 1
    <Mu_y> = 1
    <H_c> = 0
    <H_cAngle> = 0
    <J_re> = 0
    <J_im> = 0
    <Sigma> = 34.450000000000003
    <d_lam> = 0
    <Phi_h> = 0
    <Phi_hx> = 0
    <Phi_hy> = 0
    <LamType> = 0
    <LamFill> = 1
    <NStrands> = 0
    <WireD> = 0
    <BHPoints> = 0
  <EndBlock>
[CircuitProps]  = 5
  <BeginCircuit>
    <CircuitName> = "Ia"
    <TotalAmps_re> = 2
    <TotalAmps_im> = 0
    <CircuitType> = 1
  <EndCircuit>
  <BeginCircuit>
    <CircuitName> = "Ib"
    <TotalAmps_re> = 2
    <TotalAmps_im> = 0
    <CircuitType> = 1
  <EndCircuit>
  <BeginCircuit>
    <CircuitName> = "Ic"
    <TotalAmps_re> = 2
    <TotalAmps_im> = 0
    <CircuitType> = 1
  <EndCircuit>
  <BeginCircuit>
    <CircuitName> = "Id"
    <TotalAmps_re> = 2
    <TotalAmps_im> = 0
    <CircuitType> = 1
  <EndCircuit>
  <BeginCircuit>
    <CircuitName> = "Ie"
    <TotalAmps_re> = 2
    <TotalAmps_im> = 0
    <CircuitType> = 1
  <EndCircuit>
[NumPoints] = 137
29.235851374942072	5.0255609114608388	0	1
13.267910145460736	4.4679481165283326	0	1
7.5450289357261777	11.792902032962967	0	1
11.949072858626186	27.151628420994257	0	1
4.2547824669942331	29.357930687483151	0	1
-0.14926145590578999	13.999204299451788	0	1
-8.8841741602896764	10.819956076142308	0	1
-22.130266557471359	19.754558212923065	0	1
-26.606251195602503	13.118638092767263	0	1
-13.360158798420771	4.1840359559865368	0	1
-13.03575052875877	-5.1058014211260732	0	1
-25.626329771238698	-14.942640012669475	0	1
-20.698350019094093	-21.250166460043783	0	1
-8.1077707766142062	-11.413327868500426	0	1
0.82763726465232512	-13.975514894205741	0	1
6.2923237519325932	-28.989617622407021	0	1
13.813967372760292	-26.251963231667407	0	1
8.3492808854800717	-11.237860503466255	0	1
13.547258488669913	-3.5315417937734703	0	1
29.515199718151266	-2.9739289988409734	0	1
30.903165750063195	-16.431504697506423	0	1
29.681683365475596	18.547174248162634	0	1
27.137539077006181	16.957416455462965	0	1
31.110455873639587	7.4926320698657127	0	1
14.796369333869785	28.373710623317709	0	1
23.018873610837236	22.229067854688459	0	1
25.17689301185348	24.313042966065556	0	1
-8.4672663459885928	33.960350419660692	0	1
-7.7415006591895636	31.049463240832573	0	1
2.487743013458708	31.903152425724958	0	1
-22.412672800565289	22.840142248568807	0	1
-14.02787669725083	28.761409481573924	0	1
-15.34299013761812	31.457791620471447	0	1
-34.914741759094682	2.4414765810443937	0	1
-31.92204960831511	2.2322071598120452	0	1
-29.572946136047069	12.224600477500982	0	1
-28.64816290334943	-14.257726405819705	0	1
-31.68857819973088	-4.4535392307222779	0	1
-34.659382405955796	-4.8710585336024748	0	1
-13.11123076955719	-32.451434909838333	0	1
-11.987410989309405	-29.669883346137823	0	1
-20.764828873005612	-24.34793383174123	0	1
4.7071344110514426	-31.651901769662363	0	1
-5.556741685341847	-31.513848096391332	0	1
-7.2944255923666832	-32.73058745746858	0	1
26.811555509164947	-22.49756633902928	0	1
24.51342217980789	-20.569203509969711	0	1
16.739576121954318	-27.272451141350537	0	1
31.557331958993458	-5.3042246964045008	0	1
28.254322971486282	-15.02309000914879	0	1
0.13959798681001229	-3.9975633080764648	0	1
-0.13959798681001229	3.9975633080764648	0	1
9.0678063862473994	-1.7846252664176161	0	1
8.9212285000968379	2.4128162070626775	0	1
-0.240806527247273	6.895796706431943	0	1
-0.38738441339778174	11.09323817991222	0	1
-8.9212285000968379	-2.4128162070626775	0	1
-9.0678063862473888	1.7846252664176205	0	1
0.38738441339778174	-11.09323817991222	0	1
0.24080652724727347	-6.8957967064319474	0	1
-6.0985003003437361	-34.533871692684301	0	1
-40	-40	0	0
40	-40	0	0
-50	-40	0	0
50	-40	0	0
-50	-50	0	0
50	-50	0	0
40	40	0	0
50	40	0	0
-50	40	0	0
-40	40	0	0
-40	7.5	0	0
-40	-7.5	0	0
-37	7.5	0	0
-37	-7.5	0	0
40	7.5	0	0
40	-7.5	0	0
37	7.5	0	0
37	-7.5	0	0
-60	-60	0	0
60	60	0	0
-60	60	0	0
60	-60	0	0
14.851264418476751	4.5210557586139739	0	1
14.781465425071682	6.5198374126522607	0	1
24.845172688667933	4.8700507256390235	0	1
24.775373695262811	6.8688323796772108	0	1
14.851188233682185	4.523237405688441	0	1
24.845096503873272	4.8722323727134889	0	1
15.200259385501734	-5.4728525115771847	0	1
15.130536576891426	-3.4762525046133335	0	1
15.130460392096774	-3.4740708575388921	0	1
25.124444847082458	-3.1272575375883305	0	1
25.124368662288017	-3.125075890513882	0	1
25.194167655692908	-5.1238575445520711	0	1
-1.6330098383750102	16.072749573977045	0	1
1.1233637197950919	25.685366533360423	0	1
0.28741514143907537	15.522076572319529	0	1
3.0437886996090757	25.134693531702844	0	1
9.9021305128851012	12.765101304173028	0	1
7.9817055330710671	13.315774305830761	0	1
7.9796071210084012	13.316376015807093	0	1
10.735980679178475	22.928992975190564	0	1
12.658504071055063	22.377718263556464	0	1
-10.197571269260411	11.705853612139288	0	1
-18.48794699481088	17.297782646846795	0	1
-15.790721009150387	3.4136681167309542	0	1
-14.673555907391473	5.0699334919834991	0	1
-22.963931632942007	10.661862526691026	0	1
-24.081096734700971	9.0055971514385984	0	1
-9.0804061675013035	13.362118987391732	0	1
-17.370781893051962	18.954048022099244	0	1
-14.284151180173398	-6.0811589061979507	0	1
-22.16425871624071	-12.237773659454552	0	1
-8.1261924521469844	-13.962986651525476	0	1
-9.3561714280288015	-12.388685353572257	0	1
-9.3575154027983967	-12.386965144312011	0	1
-17.236278964096101	-18.545300106828979	0	1
-17.237622938865787	-18.54357989756878	0	1
-16.006299988214405	-20.119601404782159	0	1
-15.514130156055076	-4.5068576082446068	0	1
-14.28280720540377	-6.0828791154581694	0	1
-22.162914741471198	-12.239493868714908	0	1
-23.394237692122431	-10.663472361501418	0	1
1.3694803394713346	-15.464216507158749	0	1
4.7896817727280228	-24.861142715017913	0	1
10.768457874600713	-12.043268451834789	0	1
8.8911239602990051	-12.726562116419165	0	1
8.8890726330288476	-12.727308738486224	0	1
12.311325393555808	-22.123488324278359	0	1
12.309274066285646	-22.124234946345506	0	1
14.188659307857421	-21.440194659694079	0	1
-0.50785357483044458	-16.147510171742947	0	1
1.3715316667414861	-15.463469885091635	0	1
4.7917330999982486	-24.860396092950978	0	1
2.9123478584264011	-25.544436379602221	0	1
10.738079091241067	22.928391265213978	0	1
[NumSegments] = 98
0	88	-1	0	0	1
2	100	-1	0	0	1
100	136	-1	0	0	1
4	98	-1	0	0	1
98	97	-1	0	0	1
97	5	-1	0	0	1
6	104	-1	0	0	1
104	105	-1	0	0	1
105	7	-1	0	0	1
8	108	-1	0	0	1
108	107	-1	0	0	1
107	9	-1	0	0	1
10	112	-1	0	0	1
112	113	-1	0	0	1
113	11	-1	0	0	1
12	117	-1	0	0	1
117	115	-1	0	0	1
115	13	-1	0	0	1
14	124	-1	0	0	1
124	125	-1	0	0	1
125	15	-1	0	0	1
16	129	-1	0	0	1
129	127	-1	0	0	1
127	17	-1	0	0	1
18	90	-1	0	0	1
90	92	-1	0	0	1
92	19	-1	0	0	1
69	70	-1	0	0	0
61	62	-1	0	0	0
70	71	-1	0	0	0
62	76	-1	0	0	0
68	67	-1	0	0	0
68	64	-1	0	0	0
66	64	-1	0	0	0
66	65	-1	0	0	0
65	63	-1	0	0	0
63	69	-1	0	0	0
71	72	-1	0	0	0
72	61	-1	0	0	0
75	67	-1	0	0	0
76	75	-1	0	0	0
71	73	-1	0	0	0
73	74	-1	0	0	0
74	72	-1	0	0	0
78	76	-1	0	0	0
75	77	-1	0	0	0
77	78	-1	0	0	0
81	80	-1	0	0	0
82	80	-1	0	0	0
81	79	-1	0	0	0
79	82	-1	0	0	0
87	1	-1	0	0	1
84	87	-1	0	0	1
87	83	-1	0	0	1
88	87	-1	0	0	1
85	88	-1	0	0	1
88	86	-1	0	0	1
84	86	-1	0	0	1
89	90	-1	0	0	1
90	91	-1	0	0	1
93	92	-1	0	0	1
92	94	-1	0	0	1
89	94	-1	0	0	1
106	107	-1	0	0	1
108	109	-1	0	0	1
106	109	-1	0	0	1
110	104	-1	0	0	1
105	111	-1	0	0	1
110	111	-1	0	0	1
114	115	-1	0	0	1
115	116	-1	0	0	1
118	117	-1	0	0	1
117	119	-1	0	0	1
114	119	-1	0	0	1
120	112	-1	0	0	1
112	121	-1	0	0	1
122	113	-1	0	0	1
113	123	-1	0	0	1
120	123	-1	0	0	1
126	127	-1	0	0	1
127	128	-1	0	0	1
130	129	-1	0	0	1
129	131	-1	0	0	1
126	131	-1	0	0	1
132	124	-1	0	0	1
124	133	-1	0	0	1
134	125	-1	0	0	1
125	135	-1	0	0	1
132	135	-1	0	0	1
136	3	-1	0	0	1
102	136	-1	0	0	1
136	103	-1	0	0	1
99	103	-1	0	0	1
101	100	-1	0	0	1
100	99	-1	0	0	1
98	96	-1	0	0	1
96	95	-1	0	0	1
95	97	-1	0	0	1
[NumArcSegments] = 51
20	21	59.999999999999922	5	0	0	1	5
21	22	179.99999999999997	5	0	0	1	5
23	22	18.458785784691063	5	0	0	1	5
0	23	101.54121421530873	5	0	0	1	5
1	2	38.778255215453811	5	0	0	1	5
24	3	101.54121421530898	5	0	0	1	5
25	24	18.458785784691038	5	0	0	1	5
25	26	179.99999999999997	5	0	0	1	5
26	27	60.000000000000021	5	0	0	1	5
27	28	179.99999914622637	5	0	0	1	5
29	28	18.458785784691063	5	0	0	1	5
4	29	101.54121421530849	5	0	0	1	5
5	6	38.778255215453768	5	0	0	1	5
30	7	101.54121421531023	5	0	0	1	5
31	30	18.458785784691127	5	0	0	1	5
31	32	179.99999999999997	5	0	0	1	5
32	33	59.999999999999943	5	0	0	1	5
33	34	179.99999999999997	5	0	0	1	5
35	34	18.458785784691038	5	0	0	1	5
8	35	101.54121421530745	5	0	0	1	5
9	10	38.778255215453704	5	0	0	1	5
36	11	101.54121421530752	5	0	0	1	5
37	36	18.458785784691038	5	0	0	1	5
37	38	179.99999999999997	5	0	0	1	5
38	39	59.999999999999943	5	0	0	1	5
39	40	179.99999999999997	5	0	0	1	5
41	40	18.458785784691063	5	0	0	1	5
12	41	101.54121421531023	5	0	0	1	5
13	14	38.778255215453768	5	0	0	1	5
42	15	101.54121421530846	5	0	0	1	5
43	42	18.458785784691063	5	0	0	1	5
43	44	90.000000426886785	5	0	0	1	5
45	46	179.99999999999997	5	0	0	1	5
47	46	18.458785784691127	5	0	0	1	5
16	47	101.54121421530763	5	0	0	1	5
17	18	38.778255215453768	5	0	0	1	5
48	19	101.54121421530873	5	0	0	1	5
49	48	18.458785784691084	5	0	0	1	5
49	20	179.99999999999997	5	0	0	1	5
50	51	180	5	0	0	1	5
51	50	180	5	0	0	1	5
52	53	180	5	0	0	1	5
53	52	180	5	0	0	1	5
54	55	180	5	0	0	1	5
55	54	180	5	0	0	1	5
56	57	180	5	0	0	1	5
57	56	180	5	0	0	1	5
58	59	180	5	0	0	1	5
59	58	180	5	0	0	1	5
60	45	60	1	0	0	1	1
44	60	90	1	0	0	1	1
[NumHoles] = 0
[NumBlockLabels] = 20
4.9000000000000004	-44.700000000000003	7	-1	0	0	0	1	0
38.200000000000003	1.8999999999999999	1	-1	0	0	0	1	0
-39.5	0.29999999999999999	1	-1	0	0	0	1	0
-6.8897678412909507	-6.1441923060005745	6	-1	0	0	1	1	0
-28.800000000000001	36	2	-1	0	0	0	1	0
9.097946475544223	0.21764633729087626	6	-1	0	0	1	1	0
-8.7946392777682334	-0.30711557098202064	6	-1	0	0	1	1	0
0.61740266809849265	-9.0839866768631836	6	-1	0	0	1	1	0
-0.20717648828007301	8.7981292274384604	6	-1	0	0	1	1	0
-1.4990862405286765	-0.052349245053755364	6	-1	0	0	1	1	0
10.458067339926682	18.576297465145782	4	-1	2	0	1	-55	0
0.68021752575523786	20.63631033197731	4	-1	2	0	1	55	0
-12.737000238192183	15.164723041727575	4	-1	3	0	1	-55	0
-19.660398118450356	7.118198214720616	4	-1	3	0	1	55	0
-18.323433207616567	-8.2445009240118292	4	-1	4	0	1	-55	0
-11.765524772127424	-15.520065297429545	4	-1	4	0	1	55	0
2.7630806318230947	-21.816860118313659	4	-1	5	0	1	-55	0
11.428591771792046	-17.81199848736097	4	-1	5	0	1	55	0
21.172174699924735	-4.5638819524487602	4	-1	1	0	1	-55	0
20.412953553081376	5.7158837671671492	4	-1	1	0	1	55	0
